33309
  -OEChem-12122308142D

 35 37  0     0  0  0  0  0  0999 V2000
   12.1308   -0.8100    0.0000 S   0  0  0  0  0  0  0  0  0  0  0  0
    3.7320    0.6900    0.0000 O   0  0  0  0  0  0  0  0  0  0  0  0
    4.5981   -0.8100    0.0000 O   0  0  0  0  0  0  0  0  0  0  0  0
    9.0084    0.4947    0.0000 N   0  0  0  0  0  0  0  0  0  0  0  0
    9.0084   -1.1147    0.0000 N   0  0  0  0  0  0  0  0  0  0  0  0
    5.4641    0.6900    0.0000 N   0  0  0  0  0  0  0  0  0  0  0  0
   11.1798    0.4990    0.0000 N   0  0  0  0  0  0  0  0  0  0  0  0
    8.0622    0.1900    0.0000 C   0  0  0  0  0  0  0  0  0  0  0  0
    8.0622   -0.8100    0.0000 C   0  0  0  0  0  0  0  0  0  0  0  0
    7.1962    0.6900    0.0000 C   0  0  0  0  0  0  0  0  0  0  0  0
    6.3301    0.1900    0.0000 C   0  0  0  0  0  0  0  0  0  0  0  0
    9.5920   -0.3100    0.0000 C   0  0  0  0  0  0  0  0  0  0  0  0
    7.1962   -1.3100    0.0000 C   0  0  0  0  0  0  0  0  0  0  0  0
    6.3301   -0.8100    0.0000 C   0  0  0  0  0  0  0  0  0  0  0  0
    2.8660    0.1900    0.0000 C   0  0  0  0  0  0  0  0  0  0  0  0
   10.5920   -0.3100    0.0000 C   0  0  0  0  0  0  0  0  0  0  0  0
    2.0000    0.6900    0.0000 C   0  0  0  0  0  0  0  0  0  0  0  0
    2.8660   -0.8100    0.0000 C   0  0  0  0  0  0  0  0  0  0  0  0
    4.5981    0.1900    0.0000 C   0  0  0  0  0  0  0  0  0  0  0  0
   11.1798   -1.1190    0.0000 C   0  0  0  0  0  0  0  0  0  0  0  0
   12.1308    0.1900    0.0000 C   0  0  0  0  0  0  0  0  0  0  0  0
    7.1962    1.3100    0.0000 H   0  0  0  0  0  0  0  0  0  0  0  0
    9.2010    1.0840    0.0000 H   0  0  0  0  0  0  0  0  0  0  0  0
    7.1962   -1.9300    0.0000 H   0  0  0  0  0  0  0  0  0  0  0  0
    5.7932   -1.1200    0.0000 H   0  0  0  0  0  0  0  0  0  0  0  0
    2.8660    0.8100    0.0000 H   0  0  0  0  0  0  0  0  0  0  0  0
    5.4641    1.3100    0.0000 H   0  0  0  0  0  0  0  0  0  0  0  0
    2.3100    1.2269    0.0000 H   0  0  0  0  0  0  0  0  0  0  0  0
    1.4631    1.0000    0.0000 H   0  0  0  0  0  0  0  0  0  0  0  0
    1.6900    0.1531    0.0000 H   0  0  0  0  0  0  0  0  0  0  0  0
    2.2460   -0.8100    0.0000 H   0  0  0  0  0  0  0  0  0  0  0  0
    2.8660   -1.4300    0.0000 H   0  0  0  0  0  0  0  0  0  0  0  0
    3.4860   -0.8100    0.0000 H   0  0  0  0  0  0  0  0  0  0  0  0
   10.9882   -1.7087    0.0000 H   0  0  0  0  0  0  0  0  0  0  0  0
   12.6324    0.5544    0.0000 H   0  0  0  0  0  0  0  0  0  0  0  0
  1 20  1  0  0  0  0
  1 21  1  0  0  0  0
  2 15  1  0  0  0  0
  2 19  1  0  0  0  0
  3 19  2  0  0  0  0
  4  8  1  0  0  0  0
  4 12  1  0  0  0  0
  4 23  1  0  0  0  0
  5  9  1  0  0  0  0
  5 12  2  0  0  0  0
  6 11  1  0  0  0  0
  6 19  1  0  0  0  0
  6 27  1  0  0  0  0
  7 16  1  0  0  0  0
  7 21  2  0  0  0  0
  8  9  2  0  0  0  0
  8 10  1  0  0  0  0
  9 13  1  0  0  0  0
 10 11  2  0  0  0  0
 10 22  1  0  0  0  0
 11 14  1  0  0  0  0
 12 16  1  0  0  0  0
 13 14  2  0  0  0  0
 13 24  1  0  0  0  0
 14 25  1  0  0  0  0
 15 17  1  0  0  0  0
 15 18  1  0  0  0  0
 15 26  1  0  0  0  0
 16 20  2  0  0  0  0
 17 28  1  0  0  0  0
 17 29  1  0  0  0  0
 17 30  1  0  0  0  0
 18 31  1  0  0  0  0
 18 32  1  0  0  0  0
 18 33  1  0  0  0  0
 20 34  1  0  0  0  0
 21 35  1  0  0  0  0
M  END
> <PUBCHEM_COMPOUND_CID>
33309

> <PUBCHEM_COMPOUND_CANONICALIZED>
1

> <PUBCHEM_CACTVS_COMPLEXITY>
382

> <PUBCHEM_CACTVS_HBOND_ACCEPTOR>
5

> <PUBCHEM_CACTVS_HBOND_DONOR>
2

> <PUBCHEM_CACTVS_ROTATABLE_BOND>
4

> <PUBCHEM_CACTVS_SUBSKEYS>
AAADccBzsABAAAAAAAAAAAAAAAAAAWLAAAAwAAAAAAAAAFgB/AAAHgQQAAAACByl1wa32bbJlAisASZjfACC8K3xGrgJ2TQ4dJmIaKLg2dGcJAholALIyCcQAAAAAACAAAQAACAAAQAACAAAQAAAAAAAAA==

> <PUBCHEM_IUPAC_OPENEYE_NAME>
isopropyl N-(2-thiazol-4-yl-3H-benzimidazol-5-yl)carbamate

> <PUBCHEM_IUPAC_CAS_NAME>
N-[2-(4-thiazolyl)-3H-benzimidazol-5-yl]carbamic acid propan-2-yl ester

> <PUBCHEM_IUPAC_NAME_MARKUP>
propan-2-yl <I>N</I>-[2-(1,3-thiazol-4-yl)-3<I>H</I>-benzimidazol-5-yl]carbamate

> <PUBCHEM_IUPAC_NAME>
propan-2-yl N-[2-(1,3-thiazol-4-yl)-3H-benzimidazol-5-yl]carbamate

> <PUBCHEM_IUPAC_SYSTEMATIC_NAME>
propan-2-yl N-[2-(1,3-thiazol-4-yl)-3H-benzimidazol-5-yl]carbamate

> <PUBCHEM_IUPAC_TRADITIONAL_NAME>
N-(2-thiazol-4-yl-3H-benzimidazol-5-yl)carbamic acid isopropyl ester

> <PUBCHEM_IUPAC_INCHI>
InChI=1S/C14H14N4O2S/c1-8(2)20-14(19)16-9-3-4-10-11(5-9)18-13(17-10)12-6-21-7-15-12/h3-8H,1-2H3,(H,16,19)(H,17,18)

> <PUBCHEM_IUPAC_INCHIKEY>
QZWHWHNCPFEXLL-UHFFFAOYSA-N

> <PUBCHEM_XLOGP3>
2.9

> <PUBCHEM_EXACT_MASS>
302.08374688

> <PUBCHEM_MOLECULAR_FORMULA>
C14H14N4O2S

> <PUBCHEM_MOLECULAR_WEIGHT>
302.35

> <PUBCHEM_OPENEYE_CAN_SMILES>
CC(C)OC(=O)NC1=CC2=C(C=C1)N=C(N2)C3=CSC=N3

> <PUBCHEM_OPENEYE_ISO_SMILES>
CC(C)OC(=O)NC1=CC2=C(C=C1)N=C(N2)C3=CSC=N3

> <PUBCHEM_CACTVS_TPSA>
108

> <PUBCHEM_MONOISOTOPIC_WEIGHT>
302.08374688

> <PUBCHEM_TOTAL_CHARGE>
0

> <PUBCHEM_HEAVY_ATOM_COUNT>
21

> <PUBCHEM_ATOM_DEF_STEREO_COUNT>
0

> <PUBCHEM_ATOM_UDEF_STEREO_COUNT>
0

> <PUBCHEM_BOND_DEF_STEREO_COUNT>
0

> <PUBCHEM_BOND_UDEF_STEREO_COUNT>
0

> <PUBCHEM_ISOTOPIC_ATOM_COUNT>
0

> <PUBCHEM_COMPONENT_COUNT>
1

> <PUBCHEM_CACTVS_TAUTO_COUNT>
4

> <PUBCHEM_COORDINATE_TYPE>
1
5
255

> <PUBCHEM_BONDANNOTATIONS>
1  20  8
1  21  8
10  11  8
11  14  8
13  14  8
16  20  8
4  12  8
4  8  8
5  12  8
5  9  8
7  16  8
7  21  8
8  10  8
8  9  8
9  13  8

$$$$
