5418-83-7.mol
     RDKit          2D

 52 53  0  0  1  0  0  0  0  0999 V2000
   -5.0749    0.1878    0.0000 O   0  0  0  0  0  0  0  0  0  0  0  0
   -0.7879   -2.2873    0.0000 O   0  0  0  0  0  0  0  0  0  0  0  0
    1.3555   -0.2247    0.0000 O   0  0  0  0  0  0  0  0  0  0  0  0
   -2.2169    0.1878    0.0000 O   0  0  0  0  0  0  0  0  0  0  0  0
   -2.9314   -0.2247    0.0000 O   0  0  0  0  0  0  0  0  0  0  0  0
    4.9510   -1.4909    0.0000 O   0  0  0  0  0  0  0  0  0  0  0  0
   -3.6459    0.1878    0.0000 O   0  0  0  0  0  0  0  0  0  0  0  0
    6.4114   -1.4821    0.0000 O   0  0  0  0  0  0  0  0  0  0  0  0
   -0.0734   -1.0498    0.0000 N   0  0  0  0  0  0  0  0  0  0  0  0
   -2.2169   -1.4623    0.0000 N   0  0  0  0  0  0  0  0  0  0  0  0
   -4.3604   -1.0498    0.0000 N   0  0  0  0  0  0  0  0  0  0  0  0
    2.0701   -1.4623    0.0000 N   0  0  0  0  0  0  0  0  0  0  0  0
   -0.7879   -3.9373    0.0000 N   0  0  0  0  0  0  0  0  0  0  0  0
   -1.5024   -5.1748    0.0000 N   0  0  0  0  0  0  0  0  0  0  0  0
   -0.0734   -5.1748    0.0000 N   0  0  0  0  0  0  0  0  0  0  0  0
    0.6410   -1.4623    0.0000 C   0  0  0  0  0  0  0  0  0  0  0  0
    0.6410   -2.2873    0.0000 C   0  0  0  0  0  0  0  0  0  0  0  0
   -1.5024   -1.0498    0.0000 C   0  0  0  0  0  0  0  0  0  0  0  0
   -0.0734   -2.6998    0.0000 C   0  0  0  0  0  0  0  0  0  0  0  0
   -3.6459   -1.4623    0.0000 C   0  0  0  0  0  0  0  0  0  0  0  0
   -0.7879   -1.4623    0.0000 C   0  0  0  0  0  0  0  0  0  0  0  0
    1.3555   -1.0498    0.0000 C   0  0  0  0  0  0  0  0  0  0  0  0
   -3.6459   -2.2873    0.0000 C   0  0  0  0  0  0  0  0  0  0  0  0
   -2.9314   -1.0498    0.0000 C   0  0  0  0  0  0  0  0  0  0  0  0
   -1.5024   -0.2247    0.0000 C   0  0  0  0  0  0  0  0  0  0  0  0
   -0.0734   -3.5248    0.0000 C   0  0  0  0  0  0  0  0  0  0  0  0
   -4.3604   -2.6998    0.0000 C   0  0  0  0  0  0  0  0  0  0  0  0
   -5.0749    1.0128    0.0000 C   0  0  0  0  0  0  0  0  0  0  0  0
    2.7845   -1.0498    0.0000 C   0  0  0  0  0  0  0  0  0  0  0  0
   -4.3604   -0.2247    0.0000 C   0  0  0  0  0  0  0  0  0  0  0  0
    2.7845   -0.2247    0.0000 C   0  0  0  0  0  0  0  0  0  0  0  0
   -5.0749   -2.2873    0.0000 C   0  0  0  0  0  0  0  0  0  0  0  0
   -4.3604   -3.5248    0.0000 C   0  0  0  0  0  0  0  0  0  0  0  0
    3.4990   -1.4623    0.0000 C   0  0  0  0  0  0  0  0  0  0  0  0
    3.4990    0.1878    0.0000 C   0  0  0  0  0  0  0  0  0  0  0  0
   -5.0749    1.8378    0.0000 C   0  0  0  0  0  0  0  0  0  0  0  0
   -5.8999    1.0128    0.0000 C   0  0  0  0  0  0  0  0  0  0  0  0
   -4.2498    1.0128    0.0000 C   0  0  0  0  0  0  0  0  0  0  0  0
    4.2135   -0.2247    0.0000 C   0  0  0  0  0  0  0  0  0  0  0  0
    4.2135   -1.0498    0.0000 C   0  0  0  0  0  0  0  0  0  0  0  0
   -5.7893   -2.6998    0.0000 C   0  0  0  0  0  0  0  0  0  0  0  0
   -5.0749   -3.9373    0.0000 C   0  0  0  0  0  0  0  0  0  0  0  0
    3.4990    1.0128    0.0000 C   0  0  0  0  0  0  0  0  0  0  0  0
    4.9510    0.2164    0.0000 C   0  0  0  0  0  0  0  0  0  0  0  0
   -5.7893   -3.5248    0.0000 C   0  0  0  0  0  0  0  0  0  0  0  0
   -0.7879   -4.7623    0.0000 C   0  0  0  0  0  0  0  0  0  0  0  0
    5.6985   -0.2076    0.0000 C   0  0  0  0  0  0  0  0  0  0  0  0
    5.6985   -1.0669    0.0000 C   0  0  0  0  0  0  0  0  0  0  0  0
    0.7145    5.2434    0.0000 O   0  0  0  0  0  0  0  0  0  0  0  0
   -0.0000    4.0059    0.0000 O   0  0  0  0  0  0  0  0  0  0  0  0
   -0.7145    5.2434    0.0000 C   0  0  0  0  0  0  0  0  0  0  0  0
   -0.0000    4.8309    0.0000 C   0  0  0  0  0  0  0  0  0  0  0  0
  1 28  1  0
  1 30  1  0
  2 21  2  0
  3 22  2  0
  4 25  1  0
  5 24  2  0
  6 40  1  0
  6 48  1  0
  7 30  2  0
  8 48  2  0
 16  9  1  0
  9 21  1  0
 18 10  1  0
 10 24  1  0
 20 11  1  0
 11 30  1  0
 12 22  1  0
 12 29  1  0
 13 26  1  0
 13 46  2  0
 14 46  1  0
 15 46  1  0
 16 17  1  6
 16 22  1  0
 17 19  1  0
 18 21  1  0
 18 25  1  1
 19 26  1  0
 20 23  1  6
 20 24  1  0
 23 27  1  0
 27 32  2  0
 27 33  1  0
 28 36  1  0
 28 37  1  0
 28 38  1  0
 29 31  2  0
 29 34  1  0
 31 35  1  0
 32 41  1  0
 33 42  2  0
 34 40  2  0
 35 39  2  0
 35 43  1  0
 39 40  1  0
 39 44  1  0
 41 45  2  0
 42 45  1  0
 44 47  2  0
 47 48  1  0
 49 52  1  0
 50 52  2  0
 51 52  1  0
V    1 0
V    2 1
V    3 2
V    4 3
V    5 4
V    6 5
V    7 6
V    8 7
V    9 10
V   10 11
V   11 12
V   12 13
V   13 14
V   14 15
V   15 16
V   16 17
V   17 18
V   18 19
V   19 20
V   20 21
V   21 22
V   22 23
V   23 24
V   24 25
V   25 26
V   26 27
V   27 28
V   28 29
V   29 30
V   30 31
V   31 32
V   32 33
V   33 34
V   34 35
V   35 36
V   36 37
V   37 38
V   38 39
V   39 40
V   40 41
V   41 42
V   42 43
V   43 44
V   44 45
V   45 46
V   46 47
V   47 48
V   48 49
V   49 8
V   50 9
V   51 50
V   52 51
M  END
