 
 
 
 52 49  0  0  1  0  0  0  0  0999 V2000
   18.7852  -16.0838    0.0000 C   0  0  2  0  0  0  0  0  0  0  0  0
   19.9750  -15.3840    0.0000 C   0  0  2  0  0  0  0  0  0  0  0  0
   18.7852  -17.4602    0.0000 C   0  0  2  0  0  0  0  0  0  0  0  0
   17.5896  -15.4016    0.0000 C   0  0  1  0  0  0  0  0  0  0  0  0
   18.7794  -14.7134    0.0000 C   0  0  0  0  0  0  0  0  0  0  0  0
   21.1823  -16.0664    0.0000 C   0  0  2  0  0  0  0  0  0  0  0  0
   19.9517  -14.0309    0.0000 C   0  0  1  0  0  0  0  0  0  0  0  0
   19.9867  -18.1483    0.0000 C   0  0  0  0  0  0  0  0  0  0  0  0
   17.5896  -18.1543    0.0000 C   0  0  0  0  0  0  0  0  0  0  0  0
   18.7794  -18.8249    0.0000 O   0  0  0  0  0  0  0  0  0  0  0  0
   16.4057  -16.0838    0.0000 C   0  0  0  0  0  0  0  0  0  0  0  0
   16.2599  -15.0399    0.0000 O   0  0  0  0  0  0  0  0  0  0  0  0
   17.5956  -14.0368    0.0000 O   0  0  0  0  0  0  0  0  0  0  0  0
   22.3893  -15.3607    0.0000 C   0  0  2  0  0  0  0  0  0  0  0  0
   21.1646  -17.4018    0.0000 C   0  0  0  0  0  0  0  0  0  0  0  0
   21.1763  -13.2786    0.0000 C   0  0  0  0  0  0  0  0  0  0  0  0
   18.8317  -13.1567    0.0000 O   0  0  0  0  0  0  0  0  0  0  0  0
   16.4057  -17.4602    0.0000 C   0  0  2  0  0  0  0  0  0  0  0  0
   22.3952  -13.9726    0.0000 C   0  0  2  0  0  0  0  0  0  0  0  0
   24.8330  -15.3142    0.0000 C   0  0  0  0  0  0  0  0  0  0  0  0
   22.3893  -16.7195    0.0000 O   0  0  0  0  0  0  0  0  0  0  0  0
   15.2218  -18.1310    0.0000 O   0  0  0  0  0  0  0  0  0  0  0  0
   23.6082  -13.2553    0.0000 C   0  0  2  0  0  0  0  0  0  0  0  0
   22.3893  -12.6021    0.0000 C   0  0  0  0  0  0  0  0  0  0  0  0
   24.8271  -13.9726    0.0000 C   0  0  0  0  0  0  0  0  0  0  0  0
   14.0322  -18.8249    0.0000 C   0  0  1  0  0  0  0  0  0  0  0  0
   23.6082  -11.9080    0.0000 C   0  0  0  0  0  0  0  0  0  0  0  0
   14.0322  -20.2070    0.0000 C   0  0  1  0  0  0  0  0  0  0  0  0
   12.8424  -18.1367    0.0000 O   0  0  0  0  0  0  0  0  0  0  0  0
   23.1767  -10.5726    0.0000 C   0  0  0  0  0  0  0  0  0  0  0  0
   25.0080  -11.9080    0.0000 C   0  0  0  0  0  0  0  0  0  0  0  0
   12.8424  -20.8952    0.0000 C   0  0  1  0  0  0  0  0  0  0  0  0
   15.2218  -20.8777    0.0000 O   0  0  0  0  0  0  0  0  0  0  0  0
   11.6584  -18.8249    0.0000 C   0  0  2  0  0  0  0  0  0  0  0  0
   24.3080   -9.7503    0.0000 O   0  0  0  0  0  0  0  0  0  0  0  0
   25.4453  -10.5726    0.0000 C   0  0  0  0  0  0  0  0  0  0  0  0
   11.6584  -20.2070    0.0000 C   0  0  2  0  0  0  0  0  0  0  0  0
   12.8424  -22.2658    0.0000 O   0  0  0  0  0  0  0  0  0  0  0  0
   10.4746  -18.1367    0.0000 C   0  0  0  0  0  0  0  0  0  0  0  0
   26.7866  -10.1352    0.0000 O   0  0  0  0  0  0  0  0  0  0  0  0
   10.4746  -20.8777    0.0000 O   0  0  0  0  0  0  0  0  0  0  0  0
   19.9691  -16.7370    0.0000 H   0  0  0  0  0  0  0  0  0  0  0  0
   21.1823  -14.7017    0.0000 H   0  0  0  0  0  0  0  0  0  0  0  0
   24.8383  -12.8063    0.0000 H   0  0  0  0  0  0  0  0  0  0  0  0
   24.5000  -21.2100    0.0000 O   0  0  0  0  0  0  0  0  0  0  0  0
   24.5000  -21.2100    0.0000 O   0  0  0  0  0  0  0  0  0  0  0  0
   24.5000  -21.2100    0.0000 O   0  0  0  0  0  0  0  0  0  0  0  0
   24.5000  -21.2100    0.0000 O   0  0  0  0  0  0  0  0  0  0  0  0
   24.5000  -21.2100    0.0000 O   0  0  0  0  0  0  0  0  0  0  0  0
   24.5000  -21.2100    0.0000 O   0  0  0  0  0  0  0  0  0  0  0  0
   24.5000  -21.2100    0.0000 O   0  0  0  0  0  0  0  0  0  0  0  0
   24.5000  -21.2100    0.0000 O   0  0  0  0  0  0  0  0  0  0  0  0
  1  2  1  0     0  0
  1  3  1  0     0  0
  1  4  1  0     0  0
  1  5  1  1     0  0
  2  6  1  0     0  0
  2  7  1  0     0  0
  3  8  1  0     0  0
  3  9  1  0     0  0
  3 10  1  1     0  0
  4 11  1  0     0  0
  4 12  1  1     0  0
  5 13  1  0     0  0
  6 14  1  0     0  0
  6 15  1  0     0  0
  7 16  1  0     0  0
  7 17  1  6     0  0
  9 18  1  0     0  0
 14 19  1  0     0  0
 14 20  1  0     0  0
 14 21  1  1     0  0
 18 22  1  1     0  0
 19 23  1  0     0  0
 19 24  1  1     0  0
 20 25  1  0     0  0
 26 22  1  1     0  0
 23 27  1  0     0  0
 26 28  1  0     0  0
 26 29  1  0     0  0
 27 30  1  0     0  0
 27 31  2  0     0  0
 28 32  1  0     0  0
 28 33  1  6     0  0
 29 34  1  0     0  0
 30 35  1  0     0  0
 31 36  1  0     0  0
 32 37  1  0     0  0
 32 38  1  6     0  0
 34 39  1  6     0  0
 36 40  2  0     0  0
 37 41  1  1     0  0
  8 15  1  0     0  0
 11 18  1  0     0  0
 16 19  1  0     0  0
 23 25  1  0     0  0
 34 37  1  0     0  0
 35 36  1  0     0  0
  2 42  1  6     0  0
  6 43  1  1     0  0
 23 44  1  6     0  0
M  STY  1   1 MUL
M  SLB  1   1   1
M  SCN  1   1 HT 
M  SAL   1  8  45  46  47  48  49  50  51  52
M  SPA   1  1  45
M  SDI   1  4   22.2600  -22.2600   22.2600  -20.2300
M  SDI   1  4   25.5500  -20.2300   25.5500  -22.2600
M  SMT   1 8
M  END
