 
     RDKit          2D

  9  9  0  0  0  0  0  0  0  0999 V2000
   17.2005  -16.1739    0.0000 C   0  0  0  0  0  0  0  0  0  0  0  0
   17.2005  -14.7661    0.0000 C   0  0  0  0  0  0  0  0  0  0  0  0
   18.4037  -16.8844    0.0000 C   0  0  0  0  0  0  0  0  0  0  0  0
   15.9908  -16.8651    0.0000 O   0  0  0  0  0  0  0  0  0  0  0  0
   18.4037  -14.0684    0.0000 C   0  0  0  0  0  0  0  0  0  0  0  0
   19.6260  -16.1739    0.0000 C   0  0  0  0  0  0  0  0  0  0  0  0
   19.6260  -14.7661    0.0000 C   0  0  0  0  0  0  0  0  0  0  0  0
   18.4037  -12.6796    0.0000 O   0  0  0  0  0  0  0  0  0  0  0  0
   20.8355  -16.8651    0.0000 O   0  0  0  0  0  0  0  0  0  0  0  0
  1  2  2  0
  1  3  1  0
  1  4  1  0
  2  5  1  0
  3  6  2  0
  5  7  2  0
  5  8  1  0
  6  9  1  0
  6  7  1  0
M  END
