 
     RDKit          2D

 30 31  0  0  1  0  0  0  0  0999 V2000
   33.0363  -30.2959    0.0000 O   0  0  0  0  0  0  0  0  0  0  0  0
   24.6400  -23.8000    0.0000 C   0  0  0  0  0  0  0  0  0  0  0  0
   24.6400  -25.2000    0.0000 C   0  0  0  0  0  0  0  0  0  0  0  0
   25.8524  -25.9000    0.0000 C   0  0  0  0  0  0  0  0  0  0  0  0
   27.0649  -25.2000    0.0000 C   0  0  0  0  0  0  0  0  0  0  0  0
   27.0649  -23.8000    0.0000 C   0  0  0  0  0  0  0  0  0  0  0  0
   25.8524  -23.1000    0.0000 C   0  0  0  0  0  0  0  0  0  0  0  0
   28.3964  -25.6326    0.0000 C   0  0  0  0  0  0  0  0  0  0  0  0
   29.2193  -24.5000    0.0000 C   0  0  0  0  0  0  0  0  0  0  0  0
   28.3964  -23.3674    0.0000 C   0  0  0  0  0  0  0  0  0  0  0  0
   27.0649  -22.4000    0.0000 C   0  0  0  0  0  0  0  0  0  0  0  0
   25.8524  -27.2998    0.0000 C   0  0  0  0  0  0  0  0  0  0  0  0
   24.6232  -28.0097    0.0000 C   0  0  0  0  0  0  0  0  0  0  0  0
   24.6232  -29.4097    0.0000 C   0  0  0  0  0  0  0  0  0  0  0  0
   23.4276  -30.1000    0.0000 C   0  0  0  0  0  0  0  0  0  0  0  0
   23.4276  -31.5000    0.0000 C   0  0  0  0  0  0  0  0  0  0  0  0
   24.6400  -32.2000    0.0000 C   0  0  0  0  0  0  0  0  0  0  0  0
   25.8356  -31.5097    0.0000 C   0  0  0  0  0  0  0  0  0  0  0  0
   25.8356  -30.1097    0.0000 C   0  0  0  0  0  0  0  0  0  0  0  0
   27.0480  -29.4097    0.0000 C   0  0  0  0  0  0  0  0  0  0  0  0
   22.2321  -32.1904    0.0000 O   0  0  0  0  0  0  0  0  0  0  0  0
   28.8275  -22.0406    0.0000 C   0  0  0  0  0  0  0  0  0  0  0  0
   30.2275  -22.0406    0.0000 C   0  0  0  0  0  0  0  0  0  0  0  0
   28.0135  -20.9200    0.0000 C   0  0  0  0  0  0  0  0  0  0  0  0
   30.9266  -20.8299    0.0000 C   0  0  0  0  0  0  0  0  0  0  0  0
   32.3397  -20.8297    0.0000 C   0  0  0  0  0  0  0  0  0  0  0  0
   33.0265  -19.6399    0.0000 C   0  0  0  0  0  0  0  0  0  0  0  0
   34.4397  -19.6395    0.0000 O   0  0  0  0  0  0  0  0  0  0  0  0
   32.3427  -18.4560    0.0000 C   0  0  0  0  0  0  0  0  0  0  0  0
   33.7432  -20.8806    0.0000 C   0  0  0  0  0  0  0  0  0  0  0  0
  2  3  1  0
  3  4  1  0
  4  5  1  0
  5  6  1  0
  6  7  1  0
  2  7  1  0
  5  8  1  1
  8  9  1  0
 10  9  1  1
  6 10  1  0
  6 11  1  1
  4 12  2  0
 12 13  1  0
 13 14  2  0
 14 15  1  0
 15 16  1  0
 16 17  1  0
 17 18  1  0
 18 19  1  0
 14 19  1  0
 19 20  2  0
 16 21  1  6
 10 22  1  0
 22 23  1  0
 22 24  1  6
 23 25  1  0
 25 26  1  0
 26 27  1  0
 27 28  1  0
 27 29  1  0
 27 30  1  0
M  END
