 
     RDKit          2D

 58 64  0  0  1  0  0  0  0  0999 V2000
   25.3810  -23.1112    0.0000 C   0  0  0  0  0  0  0  0  0  0  0  0
   25.3810  -24.4960    0.0000 C   0  0  0  0  0  0  0  0  0  0  0  0
   26.5802  -25.1884    0.0000 C   0  0  0  0  0  0  0  0  0  0  0  0
   27.7795  -24.4960    0.0000 C   0  0  0  0  0  0  0  0  0  0  0  0
   27.7795  -23.1112    0.0000 C   0  0  0  0  0  0  0  0  0  0  0  0
   26.5802  -22.4188    0.0000 C   0  0  0  0  0  0  0  0  0  0  0  0
   28.9787  -25.1884    0.0000 C   0  0  0  0  0  0  0  0  0  0  0  0
   30.1779  -24.4960    0.0000 C   0  0  0  0  0  0  0  0  0  0  0  0
   30.1779  -23.1112    0.0000 C   0  0  0  0  0  0  0  0  0  0  0  0
   28.9787  -22.4188    0.0000 C   0  0  0  0  0  0  0  0  0  0  0  0
   31.3772  -22.4188    0.0000 C   0  0  0  0  0  0  0  0  0  0  0  0
   31.3772  -21.0341    0.0000 C   0  0  0  0  0  0  0  0  0  0  0  0
   30.1779  -20.3417    0.0000 C   0  0  0  0  0  0  0  0  0  0  0  0
   28.9787  -21.0341    0.0000 C   0  0  0  0  0  0  0  0  0  0  0  0
   32.5764  -23.1112    0.0000 C   0  0  0  0  0  0  0  0  0  0  0  0
   33.7756  -22.4188    0.0000 C   0  0  0  0  0  0  0  0  0  0  0  0
   33.7756  -21.0341    0.0000 C   0  0  0  0  0  0  0  0  0  0  0  0
   32.5764  -20.3417    0.0000 C   0  0  0  0  0  0  0  0  0  0  0  0
   34.9749  -20.3417    0.0000 C   0  0  0  0  0  0  0  0  0  0  0  0
   34.9749  -18.9569    0.0000 C   0  0  0  0  0  0  0  0  0  0  0  0
   33.7756  -18.2645    0.0000 C   0  0  0  0  0  0  0  0  0  0  0  0
   32.5764  -18.9569    0.0000 C   0  0  0  0  0  0  0  0  0  0  0  0
   24.1817  -22.4188    0.0000 O   0  0  0  0  0  0  0  0  0  0  0  0
   22.9824  -23.1112    0.0000 C   0  0  0  0  0  0  0  0  0  0  0  0
   22.9824  -24.4960    0.0000 C   0  0  0  0  0  0  0  0  0  0  0  0
   24.1817  -25.1884    0.0000 O   0  0  0  0  0  0  0  0  0  0  0  0
   21.7832  -22.4188    0.0000 C   0  0  0  0  0  0  0  0  0  0  0  0
   20.5840  -23.1112    0.0000 C   0  0  0  0  0  0  0  0  0  0  0  0
   20.5840  -24.4960    0.0000 C   0  0  0  0  0  0  0  0  0  0  0  0
   21.7832  -25.1884    0.0000 O   0  0  0  0  0  0  0  0  0  0  0  0
   34.9749  -17.5721    0.0000 C   0  0  0  0  0  0  0  0  0  0  0  0
   34.9749  -16.1874    0.0000 O   0  0  0  0  0  0  0  0  0  0  0  0
   32.5764  -17.5721    0.0000 C   0  0  0  0  0  0  0  0  0  0  0  0
   36.1966  -18.2778    0.0000 O   0  0  0  0  0  0  0  0  0  0  0  0
   34.9749  -21.7264    0.0000 C   0  0  0  0  0  0  0  0  0  0  0  0
   31.3772  -23.8036    0.0000 C   0  0  0  0  0  0  0  0  0  0  0  0
   27.7795  -21.7264    0.0000 C   0  0  0  0  0  0  0  0  0  0  0  0
   32.0225  -21.6572    0.0000 C   0  0  0  0  0  0  0  0  0  0  0  0
   27.7815  -20.3429    0.0000 O   0  0  0  0  0  0  0  0  0  0  0  0
   19.3994  -25.1800    0.0000 C   0  0  0  0  0  0  0  0  0  0  0  0
   21.7832  -21.0341    0.0000 O   0  0  0  0  0  0  0  0  0  0  0  0
   19.3994  -22.4272    0.0000 O   0  0  0  0  0  0  0  0  0  0  0  0
   24.1817  -20.0647    0.0000 C   0  0  0  0  0  0  0  0  0  0  0  0
   25.3975  -19.3626    0.0000 O   0  0  0  0  0  0  0  0  0  0  0  0
   25.3974  -17.9779    0.0000 C   0  0  0  0  0  0  0  0  0  0  0  0
   24.1980  -17.2856    0.0000 C   0  0  0  0  0  0  0  0  0  0  0  0
   22.9822  -17.9877    0.0000 C   0  0  0  0  0  0  0  0  0  0  0  0
   22.9824  -19.3724    0.0000 C   0  0  0  0  0  0  0  0  0  0  0  0
   21.7645  -17.2846    0.0000 O   0  0  0  0  0  0  0  0  0  0  0  0
   26.5800  -17.2949    0.0000 C   0  0  0  0  0  0  0  0  0  0  0  0
   24.1979  -15.9104    0.0000 O   0  0  0  0  0  0  0  0  0  0  0  0
   21.7648  -20.0758    0.0000 O   0  0  0  0  0  0  0  0  0  0  0  0
   18.2241  -24.5014    0.0000 O   0  0  0  0  0  0  0  0  0  0  0  0
   19.3993  -26.5728    0.0000 O   0  0  0  0  0  0  0  0  0  0  0  0
   27.7629  -17.9778    0.0000 O   0  0  0  0  0  0  0  0  0  0  0  0
   26.5800  -15.9106    0.0000 O   0  0  0  0  0  0  0  0  0  0  0  0
   26.5802  -26.8501    0.0000 C   0  0  0  0  0  0  0  0  0  0  0  0
   25.3810  -26.1577    0.0000 C   0  0  0  0  0  0  0  0  0  0  0  0
  1  2  1  0
  2  3  1  0
  3  4  1  0
  4  5  1  0
  5  6  1  0
  1  6  1  0
  4  7  1  1
  7  8  1  0
  8  9  1  0
  9 10  1  0
  5 10  1  0
  9 11  1  0
 11 12  1  0
 12 13  2  0
 13 14  1  0
 10 14  1  1
 11 15  1  0
 15 16  1  0
 16 17  1  0
 17 18  1  0
 12 18  1  0
 17 19  1  0
 19 20  1  0
 20 21  1  0
 21 22  1  0
 18 22  1  6
 24 23  1  1
 24 25  1  0
 25 26  1  6
  2 26  1  1
 24 27  1  0
 27 28  1  0
 28 29  1  0
 29 30  1  0
 25 30  1  0
 21 31  1  0
 31 32  2  0
 21 33  1  6
 31 34  1  0
 17 35  1  1
  9 36  1  1
  5 37  1  1
 11 38  1  6
 14 39  2  0
 29 40  1  6
 27 41  1  6
 28 42  1  1
 43 23  1  1
 43 44  1  0
 44 45  1  0
 45 46  1  0
 46 47  1  0
 47 48  1  0
 43 48  1  0
 47 49  1  1
 45 50  1  1
 46 51  1  6
 48 52  1  6
 40 53  1  0
 40 54  2  0
 50 55  1  0
 50 56  2  0
  3 57  1  0
  3 58  1  0
M  END
