 
     RDKit          2D

 28 30  0  0  1  0  0  0  0  0999 V2000
   21.3500  -18.5500    0.0000 C   0  0  0  0  0  0  0  0  0  0  0  0
   21.3500  -19.9500    0.0000 C   0  0  0  0  0  0  0  0  0  0  0  0
   22.6100  -20.6500    0.0000 C   0  0  0  0  0  0  0  0  0  0  0  0
   23.8000  -19.9500    0.0000 C   0  0  0  0  0  0  0  0  0  0  0  0
   23.8000  -18.5500    0.0000 C   0  0  0  0  0  0  0  0  0  0  0  0
   22.6100  -17.8500    0.0000 C   0  0  0  0  0  0  0  0  0  0  0  0
   25.1300  -20.4400    0.0000 C   0  0  0  0  0  0  0  0  0  0  0  0
   25.9700  -19.2500    0.0000 C   0  0  0  0  0  0  0  0  0  0  0  0
   25.1300  -18.1300    0.0000 C   0  0  0  0  0  0  0  0  0  0  0  0
   25.5500  -16.8000    0.0000 C   0  0  0  0  0  0  0  0  0  0  0  0
   26.9500  -16.8000    0.0000 C   0  0  0  0  0  0  0  0  0  0  0  0
   24.7800  -15.6800    0.0000 C   0  0  0  0  0  0  0  0  0  0  0  0
   27.6500  -15.6100    0.0000 C   0  0  0  0  0  0  0  0  0  0  0  0
   29.0500  -15.6100    0.0000 C   0  0  0  0  0  0  0  0  0  0  0  0
   29.7500  -14.4200    0.0000 C   0  0  0  0  0  0  0  0  0  0  0  0
   31.1500  -14.4200    0.0000 C   0  0  0  0  0  0  0  0  0  0  0  0
   23.8000  -17.1500    0.0000 C   0  0  0  0  0  0  0  0  0  0  0  0
   22.6100  -22.0500    0.0000 C   0  0  0  0  0  0  0  0  0  0  0  0
   21.3500  -22.8200    0.0000 C   0  0  0  0  0  0  0  0  0  0  0  0
   21.3500  -24.1500    0.0000 C   0  0  0  0  0  0  0  0  0  0  0  0
   20.1600  -24.8500    0.0000 C   0  0  0  0  0  0  0  0  0  0  0  0
   20.1600  -26.2500    0.0000 C   0  0  0  0  0  0  0  0  0  0  0  0
   21.3500  -26.9500    0.0000 C   0  0  0  0  0  0  0  0  0  0  0  0
   22.5400  -26.2500    0.0000 C   0  0  0  0  0  0  0  0  0  0  0  0
   22.5400  -24.8500    0.0000 C   0  0  0  0  0  0  0  0  0  0  0  0
   23.8000  -24.1500    0.0000 C   0  0  0  0  0  0  0  0  0  0  0  0
   18.9700  -26.9500    0.0000 O   0  0  0  0  0  0  0  0  0  0  0  0
   29.0500  -13.2300    0.0000 C   0  0  0  0  0  0  0  0  0  0  0  0
  1  2  1  0
  2  3  1  0
  3  4  1  0
  4  5  1  0
  5  6  1  0
  1  6  1  0
  4  7  1  1
  7  8  1  0
  9  8  1  1
  5  9  1  0
  9 10  1  0
 10 11  1  0
 10 12  1  6
 11 13  1  0
 13 14  1  0
 14 15  1  0
 15 16  1  0
  5 17  1  1
  3 18  2  0
 18 19  1  0
 19 20  2  0
 20 21  1  0
 21 22  1  0
 22 23  1  0
 23 24  1  0
 24 25  1  0
 20 25  1  0
 25 26  2  0
 22 27  1  6
 15 28  1  0
M  END
