 
     RDKit          2D

 30 32  0  0  1  0  0  0  0  0999 V2000
   21.2800  -22.4000    0.0000 C   0  0  0  0  0  0  0  0  0  0  0  0
   21.2800  -23.8000    0.0000 C   0  0  0  0  0  0  0  0  0  0  0  0
   22.4924  -24.5000    0.0000 C   0  0  0  0  0  0  0  0  0  0  0  0
   23.7049  -23.8000    0.0000 C   0  0  0  0  0  0  0  0  0  0  0  0
   23.7049  -22.4000    0.0000 C   0  0  0  0  0  0  0  0  0  0  0  0
   22.4924  -21.7000    0.0000 C   0  0  0  0  0  0  0  0  0  0  0  0
   25.0364  -24.2326    0.0000 C   0  0  0  0  0  0  0  0  0  0  0  0
   25.8593  -23.1000    0.0000 C   0  0  0  0  0  0  0  0  0  0  0  0
   25.0364  -21.9674    0.0000 C   0  0  0  0  0  0  0  0  0  0  0  0
   23.7049  -21.0000    0.0000 C   0  0  0  0  0  0  0  0  0  0  0  0
   22.4924  -25.8998    0.0000 C   0  0  0  0  0  0  0  0  0  0  0  0
   21.2632  -26.6097    0.0000 C   0  0  0  0  0  0  0  0  0  0  0  0
   21.2632  -28.0097    0.0000 C   0  0  0  0  0  0  0  0  0  0  0  0
   20.0676  -28.7000    0.0000 C   0  0  0  0  0  0  0  0  0  0  0  0
   20.0676  -30.1000    0.0000 C   0  0  0  0  0  0  0  0  0  0  0  0
   21.2800  -30.8000    0.0000 C   0  0  0  0  0  0  0  0  0  0  0  0
   22.4756  -30.1097    0.0000 C   0  0  0  0  0  0  0  0  0  0  0  0
   22.4756  -28.7097    0.0000 C   0  0  0  0  0  0  0  0  0  0  0  0
   23.6880  -28.0097    0.0000 C   0  0  0  0  0  0  0  0  0  0  0  0
   23.6797  -30.8048    0.0000 O   0  0  0  0  0  0  0  0  0  0  0  0
   18.8721  -30.7904    0.0000 O   0  0  0  0  0  0  0  0  0  0  0  0
   25.4675  -20.6406    0.0000 C   0  0  0  0  0  0  0  0  0  0  0  0
   26.8675  -20.6406    0.0000 C   0  0  0  0  0  0  0  0  0  0  0  0
   24.6535  -19.5200    0.0000 C   0  0  0  0  0  0  0  0  0  0  0  0
   27.5666  -19.4299    0.0000 C   0  0  0  0  0  0  0  0  0  0  0  0
   28.9797  -19.4297    0.0000 C   0  0  0  0  0  0  0  0  0  0  0  0
   29.6665  -18.2399    0.0000 C   0  0  0  0  0  0  0  0  0  0  0  0
   31.0797  -18.2395    0.0000 O   0  0  0  0  0  0  0  0  0  0  0  0
   28.9827  -17.0560    0.0000 C   0  0  0  0  0  0  0  0  0  0  0  0
   30.3832  -19.4806    0.0000 C   0  0  0  0  0  0  0  0  0  0  0  0
  1  2  1  0
  2  3  1  0
  3  4  1  0
  4  5  1  0
  5  6  1  0
  1  6  1  0
  4  7  1  1
  7  8  1  0
  9  8  1  1
  5  9  1  0
  5 10  1  1
  3 11  2  0
 11 12  1  0
 12 13  2  0
 13 14  1  0
 14 15  1  0
 15 16  1  0
 16 17  1  0
 17 18  1  0
 13 18  1  0
 18 19  2  0
 17 20  1  1
 15 21  1  6
  9 22  1  0
 22 23  1  0
 22 24  1  6
 23 25  1  0
 25 26  1  0
 26 27  1  0
 27 28  1  0
 27 29  1  0
 27 30  1  0
M  END
