 
     RDKit          2D

 28 31  0  0  1  0  0  0  0  0999 V2000
    6.5292  -16.7310    0.0000 C   0  0  0  0  0  0  0  0  0  0  0  0
    6.5292  -18.0917    0.0000 C   0  0  0  0  0  0  0  0  0  0  0  0
    7.7075  -18.7720    0.0000 C   0  0  0  0  0  0  0  0  0  0  0  0
    8.8859  -18.0917    0.0000 C   0  0  0  0  0  0  0  0  0  0  0  0
    8.8859  -16.7310    0.0000 C   0  0  0  0  0  0  0  0  0  0  0  0
    7.7075  -16.0507    0.0000 C   0  0  0  0  0  0  0  0  0  0  0  0
   10.0643  -18.7720    0.0000 C   0  0  0  0  0  0  0  0  0  0  0  0
   11.2426  -18.0917    0.0000 C   0  0  0  0  0  0  0  0  0  0  0  0
   11.2426  -16.7310    0.0000 C   0  0  0  0  0  0  0  0  0  0  0  0
   10.0643  -16.0507    0.0000 C   0  0  0  0  0  0  0  0  0  0  0  0
   12.4210  -16.0507    0.0000 C   0  0  0  0  0  0  0  0  0  0  0  0
   12.4210  -14.6900    0.0000 C   0  0  0  0  0  0  0  0  0  0  0  0
   11.2426  -14.0097    0.0000 C   0  0  0  0  0  0  0  0  0  0  0  0
   10.0643  -14.6900    0.0000 C   0  0  0  0  0  0  0  0  0  0  0  0
   14.7777  -16.0507    0.0000 C   0  0  0  0  0  0  0  0  0  0  0  0
   14.7777  -14.6900    0.0000 C   0  0  0  0  0  0  0  0  0  0  0  0
   13.5994  -14.0097    0.0000 C   0  0  0  0  0  0  0  0  0  0  0  0
    8.8859  -15.3703    0.0000 C   0  0  0  0  0  0  0  0  0  0  0  0
    8.8879  -14.0109    0.0000 O   0  0  0  0  0  0  0  0  0  0  0  0
   12.4210  -13.3294    0.0000 C   0  0  0  0  0  0  0  0  0  0  0  0
   15.9436  -14.0168    0.0000 C   0  0  0  0  0  0  0  0  0  0  0  0
   13.5994  -12.3089    0.0000 C   0  0  0  0  0  0  0  0  0  0  0  0
   10.0643  -17.4113    0.0000 F   0  0  0  0  0  0  0  0  0  0  0  0
   14.7777  -13.1194    0.0000 O   0  0  0  0  0  0  0  0  0  0  0  0
    5.3509  -18.7720    0.0000 O   0  0  0  0  0  0  0  0  0  0  0  0
   14.7817  -11.6263    0.0000 O   0  0  0  0  0  0  0  0  0  0  0  0
   12.4249  -11.6308    0.0000 C   0  0  0  0  0  0  0  0  0  0  0  0
   11.2650  -12.3007    0.0000 O   0  0  0  0  0  0  0  0  0  0  0  0
  1  2  1  0
  2  3  1  0
  3  4  2  0
  4  5  1  0
  5  6  1  0
  1  6  2  0
  4  7  1  0
  7  8  1  0
  9  8  1  6
  9 10  1  0
  5 10  1  0
  9 11  1  0
 11 12  1  0
 12 13  1  0
 13 14  1  0
 10 14  1  0
 11 15  1  1
 15 16  1  0
 16 17  1  0
 12 17  1  0
  5 18  1  1
 14 19  1  1
 12 20  1  1
 16 21  1  6
 17 22  1  0
 10 23  1  6
 17 24  1  6
  2 25  2  0
 22 26  2  0
 22 27  1  0
 27 28  1  0
M  END
