 
     RDKit          2D

 29 31  0  0  1  0  0  0  0  0999 V2000
   16.6600  -25.0600    0.0000 C   0  0  0  0  0  0  0  0  0  0  0  0
   16.6600  -26.4600    0.0000 C   0  0  0  0  0  0  0  0  0  0  0  0
   17.8724  -27.1600    0.0000 C   0  0  0  0  0  0  0  0  0  0  0  0
   19.0849  -26.4600    0.0000 C   0  0  0  0  0  0  0  0  0  0  0  0
   19.0849  -25.0600    0.0000 C   0  0  0  0  0  0  0  0  0  0  0  0
   17.8724  -24.3600    0.0000 C   0  0  0  0  0  0  0  0  0  0  0  0
   20.4164  -26.8926    0.0000 C   0  0  0  0  0  0  0  0  0  0  0  0
   21.2393  -25.7600    0.0000 C   0  0  0  0  0  0  0  0  0  0  0  0
   20.4164  -24.6274    0.0000 C   0  0  0  0  0  0  0  0  0  0  0  0
   20.8475  -23.3006    0.0000 C   0  0  0  0  0  0  0  0  0  0  0  0
   22.2475  -23.3006    0.0000 C   0  0  0  0  0  0  0  0  0  0  0  0
   20.0335  -22.1800    0.0000 C   0  0  0  0  0  0  0  0  0  0  0  0
   22.9466  -22.0899    0.0000 C   0  0  0  0  0  0  0  0  0  0  0  0
   24.3597  -22.0897    0.0000 C   0  0  0  0  0  0  0  0  0  0  0  0
   25.0733  -23.3247    0.0000 C   0  0  0  0  0  0  0  0  0  0  0  0
   25.0465  -20.8999    0.0000 C   0  0  0  0  0  0  0  0  0  0  0  0
   26.4597  -20.8995    0.0000 C   0  0  0  0  0  0  0  0  0  0  0  0
   24.3627  -19.7160    0.0000 C   0  0  0  0  0  0  0  0  0  0  0  0
   19.0849  -23.6600    0.0000 C   0  0  0  0  0  0  0  0  0  0  0  0
   17.8724  -28.5598    0.0000 C   0  0  0  0  0  0  0  0  0  0  0  0
   16.6432  -29.2697    0.0000 C   0  0  0  0  0  0  0  0  0  0  0  0
   16.6432  -30.6697    0.0000 C   0  0  0  0  0  0  0  0  0  0  0  0
   15.4476  -31.3600    0.0000 C   0  0  0  0  0  0  0  0  0  0  0  0
   15.4476  -32.7600    0.0000 C   0  0  0  0  0  0  0  0  0  0  0  0
   16.6600  -33.4600    0.0000 C   0  0  0  0  0  0  0  0  0  0  0  0
   17.8556  -32.7697    0.0000 C   0  0  0  0  0  0  0  0  0  0  0  0
   17.8556  -31.3697    0.0000 C   0  0  0  0  0  0  0  0  0  0  0  0
   14.2521  -30.6696    0.0000 C   0  0  0  0  0  0  0  0  0  0  0  0
   19.0597  -33.4648    0.0000 O   0  0  0  0  0  0  0  0  0  0  0  0
  1  2  1  0
  2  3  1  0
  3  4  1  0
  4  5  1  0
  5  6  1  0
  1  6  1  0
  4  7  1  1
  7  8  1  0
  9  8  1  1
  5  9  1  0
  9 10  1  0
 10 11  1  0
 10 12  1  6
 11 13  2  0
 13 14  1  0
 14 15  1  1
 14 16  1  0
 16 17  1  0
 16 18  1  0
  5 19  1  1
  3 20  2  0
 20 21  1  0
 21 22  2  0
 22 23  1  0
 23 24  1  0
 24 25  1  0
 25 26  1  0
 26 27  1  0
 22 27  1  0
 23 28  1  6
 26 29  1  1
M  END
