 
     RDKit          2D

 31 35  0  0  1  0  0  0  0  0999 V2000
   16.6600  -25.0600    0.0000 C   0  0  0  0  0  0  0  0  0  0  0  0
   16.6600  -26.4600    0.0000 C   0  0  0  0  0  0  0  0  0  0  0  0
   17.8500  -27.1600    0.0000 C   0  0  0  0  0  0  0  0  0  0  0  0
   19.1100  -26.4600    0.0000 C   0  0  0  0  0  0  0  0  0  0  0  0
   19.1100  -25.0600    0.0000 C   0  0  0  0  0  0  0  0  0  0  0  0
   17.8500  -24.3600    0.0000 C   0  0  0  0  0  0  0  0  0  0  0  0
   20.3000  -27.1600    0.0000 C   0  0  0  0  0  0  0  0  0  0  0  0
   21.4900  -26.4600    0.0000 C   0  0  0  0  0  0  0  0  0  0  0  0
   21.4900  -25.0600    0.0000 C   0  0  0  0  0  0  0  0  0  0  0  0
   20.3000  -24.3600    0.0000 C   0  0  0  0  0  0  0  0  0  0  0  0
   22.7500  -24.3600    0.0000 C   0  0  0  0  0  0  0  0  0  0  0  0
   22.7500  -22.9600    0.0000 C   0  0  0  0  0  0  0  0  0  0  0  0
   21.4900  -22.2600    0.0000 C   0  0  0  0  0  0  0  0  0  0  0  0
   20.3000  -22.9600    0.0000 C   0  0  0  0  0  0  0  0  0  0  0  0
   25.1300  -24.3600    0.0000 C   0  0  0  0  0  0  0  0  0  0  0  0
   25.1300  -22.9600    0.0000 C   0  0  0  0  0  0  0  0  0  0  0  0
   23.9400  -22.2600    0.0000 C   0  0  0  0  0  0  0  0  0  0  0  0
   15.4700  -27.1600    0.0000 O   0  0  0  0  0  0  0  0  0  0  0  0
   19.1100  -23.6600    0.0000 C   0  0  0  0  0  0  0  0  0  0  0  0
   19.1100  -22.2600    0.0000 O   0  0  0  0  0  0  0  0  0  0  0  0
   22.7500  -21.5600    0.0000 C   0  0  0  0  0  0  0  0  0  0  0  0
   23.9400  -20.7200    0.0000 C   0  0  0  0  0  0  0  0  0  0  0  0
   25.1300  -21.5600    0.0000 O   0  0  0  0  0  0  0  0  0  0  0  0
   26.5300  -22.6100    0.0000 O   0  0  0  0  0  0  0  0  0  0  0  0
   26.5300  -21.5600    0.0000 C   0  0  0  0  0  0  0  0  0  0  0  0
   27.7200  -20.8600    0.0000 C   0  0  0  0  0  0  0  0  0  0  0  0
   28.9100  -21.5600    0.0000 C   0  0  0  0  0  0  0  0  0  0  0  0
   30.1000  -20.8600    0.0000 C   0  0  0  0  0  0  0  0  0  0  0  0
   25.1524  -20.0200    0.0000 O   0  0  0  0  0  0  0  0  0  0  0  0
   22.7276  -20.0200    0.0000 C   0  0  0  0  0  0  0  0  0  0  0  0
   21.5321  -20.7104    0.0000 O   0  0  0  0  0  0  0  0  0  0  0  0
  1  2  1  0
  2  3  1  0
  3  4  2  0
  4  5  1  0
  5  6  1  0
  1  6  2  0
  4  7  1  0
  7  8  1  0
  9  8  1  6
  9 10  1  0
  5 10  1  0
  9 11  1  0
 11 12  1  0
 12 13  1  0
 13 14  1  0
 10 14  1  1
 11 15  1  1
 16 15  1  6
 16 17  1  0
 12 17  1  0
  2 18  2  0
  5 19  1  1
 14 20  1  1
 12 21  1  1
 17 22  1  1
 17 23  1  0
 16 24  1  0
 23 25  1  0
 25 24  1  0
 26 27  1  0
 26 25  1  0
 27 28  1  0
 22 29  2  0
 22 30  1  0
 30 31  1  0
M  END
