 
     RDKit          2D

 27 29  0  0  1  0  0  0  0  0999 V2000
    4.2529  -10.3884    0.0000 C   0  0  0  0  0  0  0  0  0  0  0  0
    4.2529  -11.7514    0.0000 C   0  0  0  0  0  0  0  0  0  0  0  0
    5.4333  -12.4329    0.0000 C   0  0  0  0  0  0  0  0  0  0  0  0
    6.6137  -11.7514    0.0000 C   0  0  0  0  0  0  0  0  0  0  0  0
    6.6137  -10.3884    0.0000 C   0  0  0  0  0  0  0  0  0  0  0  0
    5.4333   -9.7068    0.0000 C   0  0  0  0  0  0  0  0  0  0  0  0
    7.7941  -12.4329    0.0000 C   0  0  0  0  0  0  0  0  0  0  0  0
    8.9745  -11.7514    0.0000 C   0  0  0  0  0  0  0  0  0  0  0  0
    8.9745  -10.3884    0.0000 C   0  0  0  0  0  0  0  0  0  0  0  0
    7.7941   -9.7068    0.0000 C   0  0  0  0  0  0  0  0  0  0  0  0
   10.1550   -9.7068    0.0000 C   0  0  0  0  0  0  0  0  0  0  0  0
   10.1550   -8.3438    0.0000 C   0  0  0  0  0  0  0  0  0  0  0  0
    8.9745   -7.6623    0.0000 C   0  0  0  0  0  0  0  0  0  0  0  0
    7.7941   -8.3438    0.0000 C   0  0  0  0  0  0  0  0  0  0  0  0
   12.5157   -9.7068    0.0000 C   0  0  0  0  0  0  0  0  0  0  0  0
   12.5157   -8.3438    0.0000 C   0  0  0  0  0  0  0  0  0  0  0  0
   11.3354   -7.6623    0.0000 C   0  0  0  0  0  0  0  0  0  0  0  0
    3.0725  -12.4329    0.0000 O   0  0  0  0  0  0  0  0  0  0  0  0
    6.6137   -9.0253    0.0000 C   0  0  0  0  0  0  0  0  0  0  0  0
    6.6157   -7.6635    0.0000 O   0  0  0  0  0  0  0  0  0  0  0  0
   10.1550   -6.9808    0.0000 C   0  0  0  0  0  0  0  0  0  0  0  0
   11.3354   -6.0948    0.0000 C   0  0  0  0  0  0  0  0  0  0  0  0
   12.5157   -6.9808    0.0000 O   0  0  0  0  0  0  0  0  0  0  0  0
   12.5197   -5.4111    0.0000 C   0  0  0  0  0  0  0  0  0  0  0  0
   10.1589   -5.4155    0.0000 O   0  0  0  0  0  0  0  0  0  0  0  0
   13.6856   -6.0843    0.0000 O   0  0  0  0  0  0  0  0  0  0  0  0
   15.8200   -9.8700    0.0000 O   0  0  0  0  0  0  0  0  0  0  0  0
  1  2  1  0
  2  3  1  0
  3  4  2  0
  4  5  1  0
  5  6  1  0
  1  6  2  0
  4  7  1  0
  7  8  1  0
  9  8  1  6
  9 10  1  0
  5 10  1  0
  9 11  1  0
 11 12  1  0
 12 13  1  0
 13 14  1  0
 10 14  1  1
 11 15  1  1
 15 16  1  0
 16 17  1  0
 12 17  1  0
  2 18  2  0
  5 19  1  1
 14 20  2  0
 12 21  1  1
 17 22  1  0
 17 23  1  6
 22 24  1  0
 22 25  2  0
 24 26  1  0
M  END
