 
     RDKit          2D

 28 30  0  0  0  0  0  0  0  0999 V2000
   28.3837  -14.8490    0.0000 C   0  0  0  0  0  0  0  0  0  0  0  0
   29.5179  -14.1825    0.0000 S   0  0  0  0  0  0  0  0  0  0  0  0
   28.3837  -16.1643    0.0000 C   0  0  0  0  0  0  0  0  0  0  0  0
   27.2437  -14.1825    0.0000 C   0  0  0  0  0  0  0  0  0  0  0  0
   30.6638  -14.8490    0.0000 N   0  0  0  0  0  0  0  0  0  0  0  0
   28.3779  -13.2470    0.0000 O   0  0  0  0  0  0  0  0  0  0  0  0
   30.6989  -13.2470    0.0000 O   0  0  0  0  0  0  0  0  0  0  0  0
   27.2437  -16.8190    0.0000 C   0  0  0  0  0  0  0  0  0  0  0  0
   26.1096  -14.8490    0.0000 C   0  0  0  0  0  0  0  0  0  0  0  0
   31.8038  -14.1825    0.0000 C   0  0  0  0  0  0  0  0  0  0  0  0
   26.1096  -16.1643    0.0000 C   0  0  0  0  0  0  0  0  0  0  0  0
   31.7921  -12.8670    0.0000 C   0  0  0  0  0  0  0  0  0  0  0  0
   32.9438  -14.8373    0.0000 N   0  0  0  0  0  0  0  0  0  0  0  0
   24.9637  -16.8190    0.0000 N   0  0  0  0  0  0  0  0  0  0  0  0
   32.9321  -12.2063    0.0000 C   0  0  0  0  0  0  0  0  0  0  0  0
   34.0838  -14.1766    0.0000 C   0  0  0  0  0  0  0  0  0  0  0  0
   23.6424  -16.1234    0.0000 N   0  0  0  0  0  0  0  0  0  0  0  0
   34.0780  -12.8613    0.0000 C   0  0  0  0  0  0  0  0  0  0  0  0
   22.3504  -16.8718    0.0000 C   0  0  0  0  0  0  0  0  0  0  0  0
   22.3504  -18.3683    0.0000 C   0  0  0  0  0  0  0  0  0  0  0  0
   21.0585  -16.1234    0.0000 C   0  0  0  0  0  0  0  0  0  0  0  0
   21.0585  -19.1166    0.0000 C   0  0  0  0  0  0  0  0  0  0  0  0
   19.7604  -16.8718    0.0000 C   0  0  0  0  0  0  0  0  0  0  0  0
   19.7664  -18.3683    0.0000 C   0  0  0  0  0  0  0  0  0  0  0  0
   21.0585  -20.6134    0.0000 C   0  0  0  0  0  0  0  0  0  0  0  0
   18.4685  -19.1226    0.0000 O   0  0  0  0  0  0  0  0  0  0  0  0
   22.3563  -21.3615    0.0000 O   0  0  0  0  0  0  0  0  0  0  0  0
   19.7664  -21.3615    0.0000 O   0  0  0  0  0  0  0  0  0  0  0  0
  1  2  1  0
  1  3  2  0
  1  4  1  0
  2  5  1  0
  2  6  2  0
  2  7  2  0
  3  8  1  0
  4  9  2  0
  5 10  1  0
  8 11  2  0
 10 12  2  0
 10 13  1  0
 11 14  1  0
 12 15  1  0
 13 16  2  0
 14 17  2  0
 15 18  2  0
 17 19  1  0
 19 20  2  0
 19 21  1  0
 20 22  1  0
 21 23  2  0
 22 24  2  0
 22 25  1  0
 24 26  1  0
 25 27  1  0
 25 28  2  0
  9 11  1  0
 16 18  1  0
 23 24  1  0
M  END
