 
     RDKit          2D

 26 29  0  0  1  0  0  0  0  0999 V2000
    5.9500  -12.1800    0.0000 C   0  0  0  0  0  0  0  0  0  0  0  0
    5.9500  -13.5800    0.0000 C   0  0  0  0  0  0  0  0  0  0  0  0
    7.1624  -14.2800    0.0000 C   0  0  0  0  0  0  0  0  0  0  0  0
    8.3749  -13.5800    0.0000 C   0  0  0  0  0  0  0  0  0  0  0  0
    8.3749  -12.1800    0.0000 C   0  0  0  0  0  0  0  0  0  0  0  0
    7.1624  -11.4800    0.0000 C   0  0  0  0  0  0  0  0  0  0  0  0
    9.5873  -14.2800    0.0000 C   0  0  0  0  0  0  0  0  0  0  0  0
   10.7997  -13.5800    0.0000 C   0  0  0  0  0  0  0  0  0  0  0  0
   10.7997  -12.1800    0.0000 C   0  0  0  0  0  0  0  0  0  0  0  0
    9.5873  -11.4800    0.0000 C   0  0  0  0  0  0  0  0  0  0  0  0
   12.0122  -11.4800    0.0000 C   0  0  0  0  0  0  0  0  0  0  0  0
   12.0122  -10.0800    0.0000 C   0  0  0  0  0  0  0  0  0  0  0  0
   10.7997   -9.3800    0.0000 C   0  0  0  0  0  0  0  0  0  0  0  0
    9.5873  -10.0800    0.0000 C   0  0  0  0  0  0  0  0  0  0  0  0
   14.4370  -11.4800    0.0000 C   0  0  0  0  0  0  0  0  0  0  0  0
   14.4370  -10.0800    0.0000 C   0  0  0  0  0  0  0  0  0  0  0  0
   13.2246   -9.3800    0.0000 C   0  0  0  0  0  0  0  0  0  0  0  0
    4.7376  -14.2800    0.0000 O   0  0  0  0  0  0  0  0  0  0  0  0
    8.3749  -10.7800    0.0000 C   0  0  0  0  0  0  0  0  0  0  0  0
    8.3769   -9.3812    0.0000 O   0  0  0  0  0  0  0  0  0  0  0  0
   12.0122   -8.6800    0.0000 C   0  0  0  0  0  0  0  0  0  0  0  0
   13.2246   -7.7700    0.0000 C   0  0  0  0  0  0  0  0  0  0  0  0
   14.4370   -8.6800    0.0000 O   0  0  0  0  0  0  0  0  0  0  0  0
   14.4411   -7.0677    0.0000 C   0  0  0  0  0  0  0  0  0  0  0  0
   12.0162   -7.0723    0.0000 O   0  0  0  0  0  0  0  0  0  0  0  0
   15.6386   -7.7592    0.0000 O   0  0  0  0  0  0  0  0  0  0  0  0
  1  2  1  0
  2  3  1  0
  3  4  2  0
  4  5  1  0
  5  6  1  0
  1  6  2  0
  4  7  1  0
  7  8  1  0
  9  8  1  6
  9 10  1  0
  5 10  1  0
  9 11  1  0
 11 12  1  0
 12 13  1  0
 13 14  1  0
 10 14  1  1
 11 15  1  1
 15 16  1  0
 16 17  1  0
 12 17  1  0
  2 18  2  0
  5 19  1  1
 14 20  1  1
 12 21  1  1
 17 22  1  0
 17 23  1  6
 22 24  1  0
 22 25  2  0
 24 26  1  0
M  END
