 
     RDKit          2D

 24 26  0  0  1  0  0  0  0  0999 V2000
   38.4938  -15.6255    0.0000 Cl  0  0  0  0  0  0  0  0  0  0  0  0
   25.8300  -15.8200    0.0000 C   0  0  0  0  0  0  0  0  0  0  0  0
   25.9700  -14.9100    0.0000 C   0  0  0  0  0  0  0  0  0  0  0  0
   26.9500  -15.5400    0.0000 C   0  0  0  0  0  0  0  0  0  0  0  0
   27.2300  -14.4200    0.0000 C   0  0  0  0  0  0  0  0  0  0  0  0
   26.0400  -13.1600    0.0000 N   0  0  0  0  0  0  0  0  0  0  0  0
   28.7000  -15.5400    0.0000 C   0  0  0  0  0  0  0  0  0  0  0  0
   28.4200  -14.4200    0.0000 C   0  0  0  0  0  0  0  0  0  0  0  0
   29.6800  -16.0300    0.0000 C   0  0  0  0  0  0  0  0  0  0  0  0
   30.7300  -16.9400    0.0000 N   0  0  0  0  0  0  0  0  0  0  0  0
   31.8500  -16.9400    0.0000 C   0  0  0  0  0  0  0  0  0  0  0  0
   32.4100  -15.8900    0.0000 C   0  0  0  0  0  0  0  0  0  0  0  0
   32.4100  -17.9900    0.0000 O   0  0  0  0  0  0  0  0  0  0  0  0
   25.3400  -12.0400    0.0000 C   0  0  0  0  0  0  0  0  0  0  0  0
   24.8500  -14.4200    0.0000 C   0  0  0  0  0  0  0  0  0  0  0  0
   33.7400  -15.8900    0.0000 C   0  0  0  0  0  0  0  0  0  0  0  0
   34.1600  -14.6300    0.0000 C   0  0  0  0  0  0  0  0  0  0  0  0
   33.1100  -13.8600    0.0000 N   0  0  0  0  0  0  0  0  0  0  0  0
   31.9900  -14.6300    0.0000 N   0  0  0  0  0  0  0  0  0  0  0  0
   34.6500  -16.8700    0.0000 C   0  0  0  0  0  0  0  0  0  0  0  0
   35.9100  -16.5900    0.0000 C   0  0  0  0  0  0  0  0  0  0  0  0
   36.3300  -15.3300    0.0000 C   0  0  0  0  0  0  0  0  0  0  0  0
   35.4200  -14.3500    0.0000 C   0  0  0  0  0  0  0  0  0  0  0  0
   33.1100  -12.5300    0.0000 C   0  0  0  0  0  0  0  0  0  0  0  0
  4  2  1  6
  5  3  1  1
  4  6  1  0
  4  7  1  0
  5  8  1  0
  7  9  1  0
  9 10  1  0
 10 11  1  0
 11 12  1  0
 11 13  2  0
  5  6  1  0
  8  9  1  0
  6 14  1  0
  3 15  1  0
  2 15  1  0
 12 16  1  0
 16 17  2  0
 17 18  1  0
 18 19  1  0
 12 19  2  0
 16 20  1  0
 20 21  2  0
 21 22  1  0
 22 23  2  0
 17 23  1  0
 18 24  1  0
M  END
