 
     RDKit          2D

 28 31  0  0  1  0  0  0  0  0999 V2000
    7.0700  -14.9100    0.0000 C   0  0  0  0  0  0  0  0  0  0  0  0
    7.0700  -16.3100    0.0000 C   0  0  0  0  0  0  0  0  0  0  0  0
    8.2824  -17.0100    0.0000 C   0  0  0  0  0  0  0  0  0  0  0  0
    9.4949  -16.3100    0.0000 C   0  0  0  0  0  0  0  0  0  0  0  0
    9.4949  -14.9100    0.0000 C   0  0  0  0  0  0  0  0  0  0  0  0
    8.2824  -14.2100    0.0000 C   0  0  0  0  0  0  0  0  0  0  0  0
   10.7073  -17.0100    0.0000 C   0  0  0  0  0  0  0  0  0  0  0  0
   11.9197  -16.3100    0.0000 C   0  0  0  0  0  0  0  0  0  0  0  0
   11.9197  -14.9100    0.0000 C   0  0  0  0  0  0  0  0  0  0  0  0
   10.7073  -14.2100    0.0000 C   0  0  0  0  0  0  0  0  0  0  0  0
   13.1322  -14.2100    0.0000 C   0  0  0  0  0  0  0  0  0  0  0  0
   13.1322  -12.8100    0.0000 C   0  0  0  0  0  0  0  0  0  0  0  0
   11.9197  -12.1100    0.0000 C   0  0  0  0  0  0  0  0  0  0  0  0
   10.7073  -12.8100    0.0000 C   0  0  0  0  0  0  0  0  0  0  0  0
   15.5570  -14.2100    0.0000 C   0  0  0  0  0  0  0  0  0  0  0  0
   15.5570  -12.8100    0.0000 C   0  0  0  0  0  0  0  0  0  0  0  0
   14.3446  -12.1100    0.0000 C   0  0  0  0  0  0  0  0  0  0  0  0
    9.4949  -13.5100    0.0000 C   0  0  0  0  0  0  0  0  0  0  0  0
   13.1173  -17.0015    0.0000 O   0  0  0  0  0  0  0  0  0  0  0  0
   13.1322  -11.4100    0.0000 C   0  0  0  0  0  0  0  0  0  0  0  0
   14.3446  -10.7100    0.0000 C   0  0  0  0  0  0  0  0  0  0  0  0
    5.8576  -17.0100    0.0000 O   0  0  0  0  0  0  0  0  0  0  0  0
   13.1362  -10.0123    0.0000 C   0  0  0  0  0  0  0  0  0  0  0  0
   15.5611  -10.0077    0.0000 C   0  0  0  0  0  0  0  0  0  0  0  0
   16.7586  -10.6992    0.0000 C   0  0  0  0  0  0  0  0  0  0  0  0
   17.9449  -10.0143    0.0000 C   0  0  0  0  0  0  0  0  0  0  0  0
   19.1367  -10.7026    0.0000 O   0  0  0  0  0  0  0  0  0  0  0  0
   17.9451   -8.6102    0.0000 O   0  0  0  0  0  0  0  0  0  0  0  0
  1  2  1  0
  2  3  1  0
  4  3  1  6
  4  5  1  0
  5  6  1  0
  1  6  1  0
  4  7  1  0
  7  8  1  0
  9  8  1  6
  9 10  1  0
  5 10  1  0
  9 11  1  0
 11 12  1  0
 12 13  1  0
 13 14  1  0
 10 14  1  1
 11 15  1  1
 15 16  1  0
 17 16  1  1
 12 17  1  0
  5 18  1  1
  8 19  1  1
 12 20  1  1
 17 21  1  0
  2 22  1  6
 21 23  1  6
 21 24  1  0
 24 25  1  0
 25 26  1  0
 26 27  1  0
 26 28  2  0
M  END
