 
     RDKit          2D

 49 50  0  1  1  0  0  0  0  0999 V2000
   37.4113  -13.8292    0.0000 S   0  0  0  0  0  0  0  0  0  0  0  0
   36.0485  -13.8935    0.0000 O   0  0  0  0  0  0  0  0  0  0  0  0
   38.7795  -13.8292    0.0000 O   0  0  0  0  0  0  0  0  0  0  0  0
   37.4054  -12.4667    0.0000 O   0  0  0  0  0  0  0  0  0  0  0  0
   37.4054  -15.1920    0.0000 O   0  0  0  0  0  0  0  0  0  0  0  0
   31.6463  -11.2177    0.0000 O   0  0  0  0  0  0  0  0  0  0  0  0
   23.0857  -14.9648    0.0000 C   0  0  0  0  0  0  0  0  0  0  0  0
   23.4059  -13.8213    0.0000 C   0  0  0  0  0  0  0  0  0  0  0  0
   24.2293  -14.6904    0.0000 C   0  0  0  0  0  0  0  0  0  0  0  0
   24.5495  -13.5469    0.0000 C   0  0  0  0  0  0  0  0  0  0  0  0
   23.3145  -12.2660    0.0000 N   0  0  0  0  0  0  0  0  0  0  0  0
   26.0589  -14.6904    0.0000 C   0  0  0  0  0  0  0  0  0  0  0  0
   25.7845  -13.5469    0.0000 C   0  0  0  0  0  0  0  0  0  0  0  0
   27.0653  -15.2393    0.0000 C   0  0  0  0  0  0  0  0  0  0  0  0
   28.1174  -16.1084    0.0000 O   0  0  0  0  0  0  0  0  0  0  0  0
   29.3067  -16.1084    0.0000 C   0  0  0  0  0  0  0  0  0  0  0  0
   29.9014  -15.0563    0.0000 C   0  0  0  0  0  0  0  0  0  0  0  0
   29.9014  -17.2062    0.0000 O   0  0  0  0  0  0  0  0  0  0  0  0
   31.0907  -15.0563    0.0000 C   0  0  0  0  0  0  0  0  0  0  0  0
   29.3067  -14.0500    0.0000 C   0  0  0  0  0  0  0  0  0  0  0  0
   29.9014  -12.9980    0.0000 O   0  0  0  0  0  0  0  0  0  0  0  0
   31.7800  -16.2506    0.0000 C   0  0  0  0  0  0  0  0  0  0  0  0
   33.1463  -16.2509    0.0000 C   0  0  0  0  0  0  0  0  0  0  0  0
   33.8297  -15.0677    0.0000 C   0  0  0  0  0  0  0  0  0  0  0  0
   33.1405  -13.8735    0.0000 C   0  0  0  0  0  0  0  0  0  0  0  0
   31.7742  -13.8732    0.0000 C   0  0  0  0  0  0  0  0  0  0  0  0
   22.5834  -11.1103    0.0000 C   0  0  0  0  0  0  0  0  0  0  0  0
   31.6463  -11.2177    0.0000 O   0  0  0  0  0  0  0  0  0  0  0  0
   23.0857  -14.9648    0.0000 C   0  0  0  0  0  0  0  0  0  0  0  0
   23.4059  -13.8213    0.0000 C   0  0  0  0  0  0  0  0  0  0  0  0
   24.5495  -13.5469    0.0000 C   0  0  0  0  0  0  0  0  0  0  0  0
   25.7845  -13.5469    0.0000 C   0  0  0  0  0  0  0  0  0  0  0  0
   27.0653  -15.2393    0.0000 C   0  0  0  0  0  0  0  0  0  0  0  0
   26.0589  -14.6904    0.0000 C   0  0  0  0  0  0  0  0  0  0  0  0
   24.2293  -14.6904    0.0000 C   0  0  0  0  0  0  0  0  0  0  0  0
   23.3145  -12.2660    0.0000 N   0  0  0  0  0  0  0  0  0  0  0  0
   22.5834  -11.1103    0.0000 C   0  0  0  0  0  0  0  0  0  0  0  0
   28.1174  -16.1084    0.0000 O   0  0  0  0  0  0  0  0  0  0  0  0
   29.3067  -16.1084    0.0000 C   0  0  0  0  0  0  0  0  0  0  0  0
   29.9014  -15.0563    0.0000 C   0  0  0  0  0  0  0  0  0  0  0  0
   31.0907  -15.0563    0.0000 C   0  0  0  0  0  0  0  0  0  0  0  0
   31.7800  -16.2506    0.0000 C   0  0  0  0  0  0  0  0  0  0  0  0
   33.1463  -16.2509    0.0000 C   0  0  0  0  0  0  0  0  0  0  0  0
   33.8297  -15.0677    0.0000 C   0  0  0  0  0  0  0  0  0  0  0  0
   33.1405  -13.8735    0.0000 C   0  0  0  0  0  0  0  0  0  0  0  0
   31.7742  -13.8732    0.0000 C   0  0  0  0  0  0  0  0  0  0  0  0
   29.3067  -14.0500    0.0000 C   0  0  0  0  0  0  0  0  0  0  0  0
   29.9014  -12.9980    0.0000 O   0  0  0  0  0  0  0  0  0  0  0  0
   29.9014  -17.2062    0.0000 O   0  0  0  0  0  0  0  0  0  0  0  0
  1  2  1  0
  1  3  1  0
  1  4  2  0
  1  5  2  0
  7  8  1  0
  9  7  1  6
 10  8  1  1
  9 11  1  0
  9 12  1  0
 10 13  1  0
 12 14  1  0
 14 15  1  6
 15 16  1  0
 16 17  1  0
 16 18  2  0
 17 19  1  0
 17 20  1  6
 20 21  1  0
 10 11  1  0
 13 14  1  0
 19 22  2  0
 22 23  1  0
 23 24  2  0
 24 25  1  0
 25 26  2  0
 19 26  1  0
 11 27  1  0
 29 30  1  0
 35 29  1  6
 31 30  1  1
 35 36  1  0
 35 34  1  0
 31 32  1  0
 34 33  1  0
 33 38  1  6
 38 39  1  0
 39 40  1  0
 39 49  2  0
 40 41  1  0
 40 47  1  6
 47 48  1  0
 31 36  1  0
 32 33  1  0
 41 42  2  0
 42 43  1  0
 43 44  2  0
 44 45  1  0
 45 46  2  0
 41 46  1  0
 36 37  1  0
M  STY  1   1 MUL
M  SLB  1   1   1
M  SCN  1   1 HT 
M  SAL   1 15   6   7   8   9  10  11  12  13  14  15  16  17  18  19  20
M  SAL   1 15  21  22  23  24  25  26  27  28  29  30  31  32  33  34  35
M  SAL   1 14  36  37  38  39  40  41  42  43  44  45  46  47  48  49
M  SPA   1 15   6   7   8  10  13  14  12   9  11  27  15  16  17  19  22
M  SPA   1  7  23  24  25  26  20  21  18
M  SDI   1  4   20.8600  -18.0600   20.8600   -9.8000
M  SDI   1  4   34.2300   -9.8000   34.2300  -18.0600
M  SMT   1 2
M  END
