 
     RDKit          2D

 47 50  0  0  1  0  0  0  0  0999 V2000
   13.7782  -18.2793    0.0000 C   0  0  0  0  0  0  0  0  0  0  0  0
   12.5596  -17.5821    0.0000 O   0  0  0  0  0  0  0  0  0  0  0  0
   11.3432  -18.2826    0.0000 C   0  0  0  0  0  0  0  0  0  0  0  0
   11.3451  -19.6873    0.0000 C   0  0  0  0  0  0  0  0  0  0  0  0
   12.5634  -20.3916    0.0000 C   0  0  0  0  0  0  0  0  0  0  0  0
   13.7800  -19.6841    0.0000 C   0  0  0  0  0  0  0  0  0  0  0  0
   12.5738  -11.9903    0.0000 C   0  0  0  0  0  0  0  0  0  0  0  0
   12.5738  -13.3918    0.0000 C   0  0  0  0  0  0  0  0  0  0  0  0
   13.7913  -14.0890    0.0000 C   0  0  0  0  0  0  0  0  0  0  0  0
   14.9948  -13.3918    0.0000 O   0  0  0  0  0  0  0  0  0  0  0  0
   14.9948  -11.9903    0.0000 C   0  0  0  0  0  0  0  0  0  0  0  0
   13.7913  -11.2859    0.0000 C   0  0  0  0  0  0  0  0  0  0  0  0
   16.2008  -11.2859    0.0000 C   0  0  0  0  0  0  0  0  0  0  0  0
   17.4122  -11.9832    0.0000 C   0  0  0  0  0  0  0  0  0  0  0  0
   18.6233  -11.2790    0.0000 C   0  0  0  0  0  0  0  0  0  0  0  0
   19.8348  -11.9763    0.0000 C   0  0  0  0  0  0  0  0  0  0  0  0
   21.0462  -11.2719    0.0000 C   0  0  0  0  0  0  0  0  0  0  0  0
   22.2574  -11.9692    0.0000 C   0  0  0  0  0  0  0  0  0  0  0  0
   23.4617  -11.2648    0.0000 C   0  0  0  0  0  0  0  0  0  0  0  0
   25.8845  -11.2579    0.0000 O   0  0  0  0  0  0  0  0  0  0  0  0
   13.7932  -15.4905    0.0000 C   0  0  0  0  0  0  0  0  0  0  0  0
   15.0018  -16.1932    0.0000 C   0  0  0  0  0  0  0  0  0  0  0  0
   16.2078  -15.4834    0.0000 C   0  0  0  0  0  0  0  0  0  0  0  0
   17.4191  -16.1876    0.0000 C   0  0  0  0  0  0  0  0  0  0  0  0
   18.6304  -15.4834    0.0000 C   0  0  0  0  0  0  0  0  0  0  0  0
   19.8419  -16.1876    0.0000 C   0  0  0  0  0  0  0  0  0  0  0  0
   21.0531  -15.4834    0.0000 C   0  0  0  0  0  0  0  0  0  0  0  0
   22.2645  -16.1876    0.0000 C   0  0  0  0  0  0  0  0  0  0  0  0
   23.4688  -15.4834    0.0000 C   0  0  0  0  0  0  0  0  0  0  0  0
   24.6801  -16.1876    0.0000 C   0  0  0  0  0  0  0  0  0  0  0  0
   25.8913  -15.4834    0.0000 C   0  0  0  0  0  0  0  0  0  0  0  0
   25.8845  -14.0819    0.0000 C   0  0  0  0  0  0  0  0  0  0  0  0
   24.6663  -13.3908    0.0000 O   0  0  0  0  0  0  0  0  0  0  0  0
   24.6590  -11.9832    0.0000 C   0  0  0  0  0  0  0  0  0  0  0  0
   19.8277  -10.5748    0.0000 O   0  0  0  0  0  0  0  0  0  0  0  0
   17.4051  -13.3847    0.0000 O   0  0  0  0  0  0  0  0  0  0  0  0
   14.9824  -10.5888    0.0000 O   0  0  0  0  0  0  0  0  0  0  0  0
   14.9894  -17.5892    0.0000 O   0  0  0  0  0  0  0  0  0  0  0  0
   27.0957  -13.3776    0.0000 C   0  0  0  0  0  0  0  0  0  0  0  0
   11.3554  -11.2859    0.0000 O   0  0  0  0  0  0  0  0  0  0  0  0
   11.3554  -14.0819    0.0000 C   0  0  0  0  0  0  0  0  0  0  0  0
   10.1230  -20.3780    0.0000 O   0  0  0  0  0  0  0  0  0  0  0  0
   12.5652  -21.7930    0.0000 N   0  0  0  0  0  0  0  0  0  0  0  0
   14.9886  -20.3867    0.0000 O   0  0  0  0  0  0  0  0  0  0  0  0
   10.1276  -17.5870    0.0000 C   0  0  0  0  0  0  0  0  0  0  0  0
   10.1448  -13.3778    0.0000 O   0  0  0  0  0  0  0  0  0  0  0  0
   11.3475  -15.4834    0.0000 O   0  0  0  0  0  0  0  0  0  0  0  0
 12  7  1  0
 24 25  1  0
  6  1  1  0
 25 26  2  0
 11 13  1  0
 26 27  1  0
 27 28  2  0
 13 14  1  0
 28 29  1  0
  1  2  1  0
 29 30  2  0
 14 15  1  0
 30 31  1  0
  2  3  1  0
 31 32  1  0
 16 15  1  1
 32 33  1  0
  3  4  1  0
 33 34  1  0
 16 17  1  0
 16 35  1  0
 17 35  1  6
  4  5  1  0
 14 36  1  6
 17 18  1  0
 11 37  1  6
  5  6  1  0
 18 19  2  0
 22 38  1  6
 19 34  1  0
 32 39  1  6
  7  8  1  0
  7 40  1  1
 34 20  2  0
  8 41  1  6
  1 38  1  6
  8  9  1  0
  4 42  1  6
  9 21  1  1
  5 43  1  1
  9 10  1  0
  6 44  1  1
 21 22  1  0
  3 45  1  1
 10 11  1  0
 41 46  2  0
 22 23  1  0
 41 47  1  0
 11 12  1  0
 23 24  2  0
M  END
