 
     RDKit          2D

 31 35  0  0  1  0  0  0  0  0999 V2000
   18.6900  -28.5600    0.0000 C   0  0  0  0  0  0  0  0  0  0  0  0
   18.6900  -29.8900    0.0000 C   0  0  0  0  0  0  0  0  0  0  0  0
   19.8800  -30.5900    0.0000 C   0  0  0  0  0  0  0  0  0  0  0  0
   21.0700  -29.8900    0.0000 C   0  0  0  0  0  0  0  0  0  0  0  0
   21.0700  -28.5600    0.0000 C   0  0  0  0  0  0  0  0  0  0  0  0
   19.8800  -27.8600    0.0000 C   0  0  0  0  0  0  0  0  0  0  0  0
   22.2600  -30.5900    0.0000 C   0  0  0  0  0  0  0  0  0  0  0  0
   23.4500  -29.8900    0.0000 C   0  0  0  0  0  0  0  0  0  0  0  0
   23.4500  -28.5600    0.0000 C   0  0  0  0  0  0  0  0  0  0  0  0
   22.2600  -27.8600    0.0000 C   0  0  0  0  0  0  0  0  0  0  0  0
   24.5700  -27.8600    0.0000 C   0  0  0  0  0  0  0  0  0  0  0  0
   24.5700  -26.5300    0.0000 C   0  0  0  0  0  0  0  0  0  0  0  0
   23.4500  -25.8300    0.0000 C   0  0  0  0  0  0  0  0  0  0  0  0
   22.2600  -26.5300    0.0000 C   0  0  0  0  0  0  0  0  0  0  0  0
   26.9500  -27.8600    0.0000 C   0  0  0  0  0  0  0  0  0  0  0  0
   26.9500  -26.5300    0.0000 C   0  0  0  0  0  0  0  0  0  0  0  0
   25.7600  -25.8300    0.0000 C   0  0  0  0  0  0  0  0  0  0  0  0
   17.5700  -30.5900    0.0000 O   0  0  0  0  0  0  0  0  0  0  0  0
   21.0700  -27.1600    0.0000 C   0  0  0  0  0  0  0  0  0  0  0  0
   22.2600  -29.1900    0.0000 F   0  0  0  0  0  0  0  0  0  0  0  0
   21.0700  -25.8300    0.0000 O   0  0  0  0  0  0  0  0  0  0  0  0
   24.5700  -25.1300    0.0000 C   0  0  0  0  0  0  0  0  0  0  0  0
   25.7600  -24.2200    0.0000 C   0  0  0  0  0  0  0  0  0  0  0  0
   27.1600  -24.9200    0.0000 O   0  0  0  0  0  0  0  0  0  0  0  0
   26.9500  -23.5200    0.0000 O   0  0  0  0  0  0  0  0  0  0  0  0
   24.5700  -23.5200    0.0000 C   0  0  0  0  0  0  0  0  0  0  0  0
   23.4500  -24.2200    0.0000 O   0  0  0  0  0  0  0  0  0  0  0  0
   28.3500  -26.5300    0.0000 O   0  0  0  0  0  0  0  0  0  0  0  0
   28.5600  -24.9200    0.0000 C   0  0  0  0  0  0  0  0  0  0  0  0
   29.9600  -24.9200    0.0000 C   0  0  0  0  0  0  0  0  0  0  0  0
   28.5600  -23.5200    0.0000 C   0  0  0  0  0  0  0  0  0  0  0  0
  1  2  1  0
  2  3  1  0
  3  4  2  0
  4  5  1  0
  5  6  1  0
  1  6  2  0
  4  7  1  0
  7  8  1  0
  9  8  1  6
  9 10  1  0
  5 10  1  0
  9 11  1  0
 11 12  1  0
 12 13  1  0
 13 14  1  0
 10 14  1  0
 11 15  1  1
 16 15  1  6
 16 17  1  0
 12 17  1  0
  2 18  2  0
  5 19  1  1
 10 20  1  6
 14 21  1  1
 12 22  1  1
 17 23  1  1
 17 24  1  0
 23 25  2  0
 23 26  1  0
 26 27  1  0
 16 28  1  0
 24 29  1  0
 29 28  1  0
 29 30  1  0
 29 31  1  0
M  END
