 
     RDKit          2D

 33 36  0  0  1  0  0  0  0  0999 V2000
    5.5829  -11.2284    0.0000 C   0  0  0  0  0  0  0  0  0  0  0  0
    5.5829  -12.5914    0.0000 C   0  0  0  0  0  0  0  0  0  0  0  0
    6.7633  -13.2729    0.0000 C   0  0  0  0  0  0  0  0  0  0  0  0
    7.9437  -12.5914    0.0000 C   0  0  0  0  0  0  0  0  0  0  0  0
    7.9437  -11.2284    0.0000 C   0  0  0  0  0  0  0  0  0  0  0  0
    6.7633  -10.5468    0.0000 C   0  0  0  0  0  0  0  0  0  0  0  0
    9.1241  -13.2729    0.0000 C   0  0  0  0  0  0  0  0  0  0  0  0
   10.3045  -12.5914    0.0000 C   0  0  0  0  0  0  0  0  0  0  0  0
   10.3045  -11.2284    0.0000 C   0  0  0  0  0  0  0  0  0  0  0  0
    9.1241  -10.5468    0.0000 C   0  0  0  0  0  0  0  0  0  0  0  0
   11.4850  -10.5468    0.0000 C   0  0  0  0  0  0  0  0  0  0  0  0
   11.4850   -9.1838    0.0000 C   0  0  0  0  0  0  0  0  0  0  0  0
   10.3045   -8.5023    0.0000 C   0  0  0  0  0  0  0  0  0  0  0  0
    9.1241   -9.1838    0.0000 C   0  0  0  0  0  0  0  0  0  0  0  0
   13.8457  -10.5468    0.0000 C   0  0  0  0  0  0  0  0  0  0  0  0
   13.8457   -9.1838    0.0000 C   0  0  0  0  0  0  0  0  0  0  0  0
   12.6654   -8.5023    0.0000 C   0  0  0  0  0  0  0  0  0  0  0  0
    4.4025  -13.2729    0.0000 O   0  0  0  0  0  0  0  0  0  0  0  0
    7.9437   -9.8653    0.0000 C   0  0  0  0  0  0  0  0  0  0  0  0
    7.9457   -8.5035    0.0000 O   0  0  0  0  0  0  0  0  0  0  0  0
   11.4850   -7.8208    0.0000 C   0  0  0  0  0  0  0  0  0  0  0  0
   12.6654   -6.7948    0.0000 C   0  0  0  0  0  0  0  0  0  0  0  0
   13.8457   -7.8208    0.0000 O   0  0  0  0  0  0  0  0  0  0  0  0
   13.8497   -6.1111    0.0000 C   0  0  0  0  0  0  0  0  0  0  0  0
   11.4889   -6.1155    0.0000 O   0  0  0  0  0  0  0  0  0  0  0  0
   15.0156   -6.7843    0.0000 O   0  0  0  0  0  0  0  0  0  0  0  0
   16.2511   -6.0706    0.0000 C   0  0  0  0  0  0  0  0  0  0  0  0
   17.4636   -6.7703    0.0000 C   0  0  0  0  0  0  0  0  0  0  0  0
   16.2506   -4.6900    0.0000 O   0  0  0  0  0  0  0  0  0  0  0  0
   18.6422   -6.0895    0.0000 C   0  0  0  0  0  0  0  0  0  0  0  0
   19.8382   -6.7799    0.0000 C   0  0  0  0  0  0  0  0  0  0  0  0
   18.6419   -4.6902    0.0000 C   0  0  0  0  0  0  0  0  0  0  0  0
   18.6422   -7.4895    0.0000 C   0  0  0  0  0  0  0  0  0  0  0  0
  1  2  1  0
  2  3  1  0
  3  4  2  0
  4  5  1  0
  5  6  1  0
  1  6  2  0
  4  7  1  0
  7  8  1  0
  9  8  1  6
  9 10  1  0
  5 10  1  0
  9 11  1  0
 11 12  1  0
 12 13  1  0
 13 14  1  0
 10 14  1  1
 11 15  1  1
 15 16  1  0
 16 17  1  0
 12 17  1  0
  2 18  2  0
  5 19  1  1
 14 20  1  1
 12 21  1  1
 17 22  1  0
 17 23  1  6
 22 24  1  0
 22 25  2  0
 24 26  1  0
 26 27  1  0
 27 28  1  0
 27 29  2  0
 28 30  1  0
 30 31  1  0
 30 32  1  0
 30 33  1  0
M  END
