 
     RDKit          2D

 35 39  0  0  1  0  0  0  0  0999 V2000
   25.0600   -9.1000    0.0000 C   0  0  0  0  0  0  0  0  0  0  0  0
   25.0600  -10.5000    0.0000 C   0  0  0  0  0  0  0  0  0  0  0  0
   26.2500   -8.4000    0.0000 C   0  0  0  0  0  0  0  0  0  0  0  0
   23.9400   -8.4700    0.0000 C   0  0  0  0  0  0  0  0  0  0  0  0
   24.9900   -7.8400    0.0000 C   0  0  0  0  0  0  0  0  0  0  0  0
   23.9400  -11.2000    0.0000 C   0  0  0  0  0  0  0  0  0  0  0  0
   27.4400  -10.5000    0.0000 C   0  0  0  0  0  0  0  0  0  0  0  0
   27.4400   -9.1000    0.0000 C   0  0  0  0  0  0  0  0  0  0  0  0
   26.2500   -7.0700    0.0000 C   0  0  0  0  0  0  0  0  0  0  0  0
   27.5800   -8.1200    0.0000 O   0  0  0  0  0  0  0  0  0  0  0  0
   22.7500   -9.1700    0.0000 C   0  0  0  0  0  0  0  0  0  0  0  0
   22.7500  -10.5000    0.0000 C   0  0  0  0  0  0  0  0  0  0  0  0
   23.9400  -12.5300    0.0000 C   0  0  0  0  0  0  0  0  0  0  0  0
   27.5100   -6.3700    0.0000 C   0  0  0  0  0  0  0  0  0  0  0  0
   24.9900   -6.3700    0.0000 O   0  0  0  0  0  0  0  0  0  0  0  0
   21.4900   -8.4700    0.0000 O   0  0  0  0  0  0  0  0  0  0  0  0
   21.5600  -11.2000    0.0000 C   0  0  0  0  0  0  0  0  0  0  0  0
   22.7500  -13.2300    0.0000 C   0  0  0  0  0  0  0  0  0  0  0  0
   28.7000   -7.1400    0.0000 O   0  0  0  0  0  0  0  0  0  0  0  0
   21.5600  -12.5300    0.0000 C   0  0  0  0  0  0  0  0  0  0  0  0
   20.3700  -10.5000    0.0000 C   0  0  0  0  0  0  0  0  0  0  0  0
   21.4900   -9.8700    0.0000 C   0  0  0  0  0  0  0  0  0  0  0  0
   29.8900   -6.4400    0.0000 C   0  0  0  0  0  0  0  0  0  0  0  0
   20.3700  -13.2300    0.0000 C   0  0  0  0  0  0  0  0  0  0  0  0
   19.1800  -11.2000    0.0000 C   0  0  0  0  0  0  0  0  0  0  0  0
   31.1500   -7.1400    0.0000 C   0  0  0  0  0  0  0  0  0  0  0  0
   29.8900   -5.0400    0.0000 O   0  0  0  0  0  0  0  0  0  0  0  0
   19.1800  -12.6000    0.0000 C   0  0  0  0  0  0  0  0  0  0  0  0
   32.3400   -6.4400    0.0000 C   0  0  0  0  0  0  0  0  0  0  0  0
   17.9900  -13.3000    0.0000 O   0  0  0  0  0  0  0  0  0  0  0  0
   33.5300   -7.1400    0.0000 C   0  0  0  0  0  0  0  0  0  0  0  0
   33.9500   -8.4700    0.0000 C   0  0  0  0  0  0  0  0  0  0  0  0
   34.6500   -6.3000    0.0000 C   0  0  0  0  0  0  0  0  0  0  0  0
   35.3500   -8.4700    0.0000 C   0  0  0  0  0  0  0  0  0  0  0  0
   35.8400   -7.1400    0.0000 C   0  0  0  0  0  0  0  0  0  0  0  0
  1  2  1  0
  1  3  1  0
  1  4  1  0
  1  5  1  1
  2  6  1  0
  2  7  1  1
  3  8  1  0
  3  9  1  0
  3 10  1  6
  4 11  1  0
  6 12  1  0
  6 13  1  6
  9 14  1  0
  9 15  2  0
 11 16  1  1
 12 17  1  0
 13 18  1  0
 14 19  1  0
 17 20  1  0
 17 21  1  0
 17 22  1  1
 19 23  1  0
 20 24  2  0
 21 25  1  0
 23 26  1  0
 23 27  2  0
 24 28  1  0
 26 29  1  0
 28 30  2  0
 29 31  1  0
 31 32  1  0
 31 33  1  0
 32 34  1  0
 33 35  1  0
  7  8  1  0
 12 11  1  1
 18 20  1  0
 25 28  1  0
 34 35  1  0
M  END
