 
     RDKit          2D

 34 37  0  0  1  0  0  0  0  0999 V2000
   18.6900  -29.1900    0.0000 C   0  0  0  0  0  0  0  0  0  0  0  0
   18.6900  -30.5200    0.0000 C   0  0  0  0  0  0  0  0  0  0  0  0
   19.8800  -31.2200    0.0000 C   0  0  0  0  0  0  0  0  0  0  0  0
   21.0700  -30.5200    0.0000 C   0  0  0  0  0  0  0  0  0  0  0  0
   21.0700  -29.1900    0.0000 C   0  0  0  0  0  0  0  0  0  0  0  0
   19.8800  -28.4900    0.0000 C   0  0  0  0  0  0  0  0  0  0  0  0
   22.2600  -31.2200    0.0000 C   0  0  0  0  0  0  0  0  0  0  0  0
   23.4500  -30.5200    0.0000 C   0  0  0  0  0  0  0  0  0  0  0  0
   23.4500  -29.1900    0.0000 C   0  0  0  0  0  0  0  0  0  0  0  0
   22.2600  -28.4900    0.0000 C   0  0  0  0  0  0  0  0  0  0  0  0
   24.5000  -28.4900    0.0000 C   0  0  0  0  0  0  0  0  0  0  0  0
   24.5000  -27.1600    0.0000 C   0  0  0  0  0  0  0  0  0  0  0  0
   23.4500  -26.4600    0.0000 C   0  0  0  0  0  0  0  0  0  0  0  0
   22.2600  -27.1600    0.0000 C   0  0  0  0  0  0  0  0  0  0  0  0
   26.8800  -28.4900    0.0000 C   0  0  0  0  0  0  0  0  0  0  0  0
   26.8800  -27.1600    0.0000 C   0  0  0  0  0  0  0  0  0  0  0  0
   25.6900  -26.4600    0.0000 C   0  0  0  0  0  0  0  0  0  0  0  0
   17.5700  -31.2200    0.0000 O   0  0  0  0  0  0  0  0  0  0  0  0
   21.0700  -27.7900    0.0000 C   0  0  0  0  0  0  0  0  0  0  0  0
   22.2600  -29.8200    0.0000 F   0  0  0  0  0  0  0  0  0  0  0  0
   21.0700  -26.4600    0.0000 O   0  0  0  0  0  0  0  0  0  0  0  0
   24.5000  -25.7600    0.0000 C   0  0  0  0  0  0  0  0  0  0  0  0
   25.6900  -24.8500    0.0000 C   0  0  0  0  0  0  0  0  0  0  0  0
   27.0900  -25.5500    0.0000 O   0  0  0  0  0  0  0  0  0  0  0  0
   26.8800  -24.2200    0.0000 O   0  0  0  0  0  0  0  0  0  0  0  0
   24.5000  -24.2200    0.0000 C   0  0  0  0  0  0  0  0  0  0  0  0
   23.4500  -24.8500    0.0000 O   0  0  0  0  0  0  0  0  0  0  0  0
   22.2260  -24.1705    0.0000 C   0  0  0  0  0  0  0  0  0  0  0  0
   21.0595  -24.8703    0.0000 C   0  0  0  0  0  0  0  0  0  0  0  0
   22.2716  -22.7512    0.0000 O   0  0  0  0  0  0  0  0  0  0  0  0
   28.0953  -26.4649    0.0000 O   0  0  0  0  0  0  0  0  0  0  0  0
   29.2837  -27.1577    0.0000 C   0  0  0  0  0  0  0  0  0  0  0  0
   30.4801  -26.4735    0.0000 C   0  0  0  0  0  0  0  0  0  0  0  0
   29.2780  -28.5599    0.0000 O   0  0  0  0  0  0  0  0  0  0  0  0
  1  2  1  0
  2  3  1  0
  3  4  2  0
  4  5  1  0
  5  6  1  0
  1  6  2  0
  4  7  1  0
  7  8  1  0
  9  8  1  6
  9 10  1  0
  5 10  1  0
  9 11  1  0
 11 12  1  0
 12 13  1  0
 13 14  1  0
 10 14  1  0
 11 15  1  1
 15 16  1  0
 16 17  1  0
 12 17  1  0
  2 18  2  0
  5 19  1  1
 10 20  1  6
 14 21  1  1
 12 22  1  1
 17 23  1  0
 17 24  1  6
 23 25  2  0
 23 26  1  0
 26 27  1  0
 27 28  1  0
 28 29  1  0
 28 30  2  0
 16 31  1  6
 31 32  1  0
 32 33  1  0
 32 34  2  0
M  END
