 
     RDKit          2D

 31 34  0  0  1  0  0  0  0  0999 V2000
   14.5909  -24.9238    0.0000 C   0  0  0  0  0  0  0  0  0  0  0  0
   14.5909  -26.2568    0.0000 C   0  0  0  0  0  0  0  0  0  0  0  0
   15.7136  -26.9584    0.0000 C   0  0  0  0  0  0  0  0  0  0  0  0
   16.9062  -26.2568    0.0000 C   0  0  0  0  0  0  0  0  0  0  0  0
   16.9062  -24.9238    0.0000 C   0  0  0  0  0  0  0  0  0  0  0  0
   15.7136  -24.2222    0.0000 C   0  0  0  0  0  0  0  0  0  0  0  0
   18.0990  -26.9584    0.0000 C   0  0  0  0  0  0  0  0  0  0  0  0
   19.2917  -26.2568    0.0000 C   0  0  0  0  0  0  0  0  0  0  0  0
   19.2917  -24.9238    0.0000 C   0  0  0  0  0  0  0  0  0  0  0  0
   18.0990  -24.2222    0.0000 C   0  0  0  0  0  0  0  0  0  0  0  0
   20.4843  -24.2222    0.0000 C   0  0  0  0  0  0  0  0  0  0  0  0
   20.4843  -22.8891    0.0000 C   0  0  0  0  0  0  0  0  0  0  0  0
   19.2917  -22.1875    0.0000 C   0  0  0  0  0  0  0  0  0  0  0  0
   18.0990  -22.8891    0.0000 C   0  0  0  0  0  0  0  0  0  0  0  0
   22.7997  -24.2222    0.0000 C   0  0  0  0  0  0  0  0  0  0  0  0
   22.7997  -22.8891    0.0000 C   0  0  0  0  0  0  0  0  0  0  0  0
   21.6070  -22.1875    0.0000 C   0  0  0  0  0  0  0  0  0  0  0  0
   13.3983  -26.9584    0.0000 O   0  0  0  0  0  0  0  0  0  0  0  0
   20.4843  -21.4859    0.0000 C   0  0  0  0  0  0  0  0  0  0  0  0
   21.6070  -20.7843    0.0000 O   0  0  0  0  0  0  0  0  0  0  0  0
   22.7997  -20.1529    0.0000 C   0  0  0  0  0  0  0  0  0  0  0  0
   23.9924  -20.7843    0.0000 C   0  0  0  0  0  0  0  0  0  0  0  0
   22.7997  -18.7497    0.0000 O   0  0  0  0  0  0  0  0  0  0  0  0
   25.1810  -20.0386    0.0000 C   0  0  0  0  0  0  0  0  0  0  0  0
   26.4134  -20.6909    0.0000 C   0  0  0  0  0  0  0  0  0  0  0  0
   27.6156  -19.9360    0.0000 C   0  0  0  0  0  0  0  0  0  0  0  0
   28.8782  -20.6038    0.0000 C   0  0  0  0  0  0  0  0  0  0  0  0
   30.0984  -19.8380    0.0000 C   0  0  0  0  0  0  0  0  0  0  0  0
   31.3510  -20.5007    0.0000 C   0  0  0  0  0  0  0  0  0  0  0  0
   32.5438  -19.7517    0.0000 C   0  0  0  0  0  0  0  0  0  0  0  0
   33.7822  -20.4067    0.0000 C   0  0  0  0  0  0  0  0  0  0  0  0
  1  2  1  0
  2  3  1  0
  3  4  2  0
  4  5  1  0
  5  6  1  6
  1  6  1  0
  4  7  1  0
  7  8  1  0
  9  8  1  6
  9 10  1  0
  5 10  1  0
  9 11  1  0
 11 12  1  0
 12 13  1  0
 13 14  1  0
 10 14  1  1
 11 15  1  1
 15 16  1  0
 16 17  1  0
 12 17  1  0
  2 18  2  0
 12 19  1  1
 17 20  1  1
 20 21  1  0
 21 23  2  0
 22 21  1  0
 22 24  1  0
 24 25  1  0
 25 26  1  0
 26 27  1  0
 27 28  1  0
 28 29  1  0
 29 30  1  0
 30 31  1  0
M  END
