 
     RDKit          2D

 32 33  0  0  1  0  0  0  0  0999 V2000
   13.5800  -13.7200    0.0000 C   0  0  0  0  0  0  0  0  0  0  0  0
   13.5800  -15.0500    0.0000 C   0  0  0  0  0  0  0  0  0  0  0  0
   14.7700  -13.0200    0.0000 C   0  0  0  0  0  0  0  0  0  0  0  0
   12.3900  -13.0200    0.0000 C   0  0  0  0  0  0  0  0  0  0  0  0
   13.5800  -12.3900    0.0000 C   0  0  0  0  0  0  0  0  0  0  0  0
   12.4600  -15.7500    0.0000 C   0  0  0  0  0  0  0  0  0  0  0  0
   15.9600  -15.0500    0.0000 C   0  0  0  0  0  0  0  0  0  0  0  0
   15.9600  -13.7200    0.0000 C   0  0  0  0  0  0  0  0  0  0  0  0
   14.7700  -11.6900    0.0000 C   0  0  0  0  0  0  0  0  0  0  0  0
   16.1000  -12.7400    0.0000 O   0  0  0  0  0  0  0  0  0  0  0  0
   11.2700  -13.7200    0.0000 C   0  0  0  0  0  0  0  0  0  0  0  0
   11.2700  -15.1200    0.0000 C   0  0  0  0  0  0  0  0  0  0  0  0
   12.4600  -17.1500    0.0000 C   0  0  0  0  0  0  0  0  0  0  0  0
   15.9600  -10.9900    0.0000 C   0  0  0  0  0  0  0  0  0  0  0  0
   13.5100  -10.9900    0.0000 O   0  0  0  0  0  0  0  0  0  0  0  0
   10.0100  -13.0200    0.0000 O   0  0  0  0  0  0  0  0  0  0  0  0
   10.0800  -15.7500    0.0000 C   0  0  0  0  0  0  0  0  0  0  0  0
   11.2700  -17.7800    0.0000 C   0  0  0  0  0  0  0  0  0  0  0  0
   17.1500  -11.7600    0.0000 O   0  0  0  0  0  0  0  0  0  0  0  0
   10.0800  -17.1500    0.0000 C   0  0  0  0  0  0  0  0  0  0  0  0
    8.8900  -15.1200    0.0000 C   0  0  0  0  0  0  0  0  0  0  0  0
   10.0100  -14.4900    0.0000 C   0  0  0  0  0  0  0  0  0  0  0  0
   18.4100  -11.0600    0.0000 P   0  0  0  0  0  0  0  0  0  0  0  0
    8.9600  -17.8500    0.0000 C   0  0  0  0  0  0  0  0  0  0  0  0
    7.7000  -15.7500    0.0000 C   0  0  0  0  0  0  0  0  0  0  0  0
    7.7000  -17.2200    0.0000 C   0  0  0  0  0  0  0  0  0  0  0  0
    6.5100  -17.8500    0.0000 O   0  0  0  0  0  0  0  0  0  0  0  0
   18.9700  -12.3200    0.0000 O   0  0  0  0  0  0  0  0  0  0  0  0
   19.6000  -10.2900    0.0000 O   0  0  0  0  0  0  0  0  0  0  0  0
   17.6400   -9.8700    0.0000 O   0  0  0  0  0  0  0  0  0  0  0  0
   20.7200  -12.3200    0.0000 Na  0  0  0  0  0 15  0  0  0  0  0  0
   21.3500  -10.2900    0.0000 Na  0  0  0  0  0 15  0  0  0  0  0  0
  1  2  1  0
  1  3  1  0
  1  4  1  0
  1  5  1  1
  2  6  1  0
  2  7  1  1
  3  8  1  0
  3  9  1  0
  3 10  1  6
  4 11  1  0
  6 12  1  0
  6 13  1  6
  9 14  1  0
  9 15  2  0
 11 16  1  1
 12 17  1  0
 13 18  1  0
 14 19  1  0
 17 20  1  0
 17 21  1  0
 17 22  1  1
 19 23  1  0
 20 24  2  0
 21 25  1  0
 24 26  1  0
 26 27  2  0
  7  8  1  0
 12 11  1  1
 18 20  1  0
 25 26  1  0
 23 28  1  0
 23 29  1  0
 23 30  2  0
M  CHG  4  28  -1  29  -1  31   1  32   1
M  END
