 
     RDKit          2D

 29 32  0  0  1  0  0  0  0  0999 V2000
   26.7400  -19.3900    0.0000 C   0  0  0  0  0  0  0  0  0  0  0  0
   26.7400  -20.7200    0.0000 C   0  0  0  0  0  0  0  0  0  0  0  0
   27.9300  -21.4200    0.0000 C   0  0  0  0  0  0  0  0  0  0  0  0
   29.1200  -20.7200    0.0000 C   0  0  0  0  0  0  0  0  0  0  0  0
   29.1200  -19.3900    0.0000 C   0  0  0  0  0  0  0  0  0  0  0  0
   27.9300  -18.6900    0.0000 C   0  0  0  0  0  0  0  0  0  0  0  0
   30.3100  -21.4200    0.0000 C   0  0  0  0  0  0  0  0  0  0  0  0
   31.5000  -20.7200    0.0000 C   0  0  0  0  0  0  0  0  0  0  0  0
   31.5000  -19.3900    0.0000 C   0  0  0  0  0  0  0  0  0  0  0  0
   30.3100  -18.6900    0.0000 C   0  0  0  0  0  0  0  0  0  0  0  0
   32.6900  -18.6900    0.0000 C   0  0  0  0  0  0  0  0  0  0  0  0
   32.6900  -17.2900    0.0000 C   0  0  0  0  0  0  0  0  0  0  0  0
   31.5000  -16.5900    0.0000 C   0  0  0  0  0  0  0  0  0  0  0  0
   30.3100  -17.2900    0.0000 C   0  0  0  0  0  0  0  0  0  0  0  0
   35.0000  -18.6900    0.0000 C   0  0  0  0  0  0  0  0  0  0  0  0
   35.0000  -17.2900    0.0000 C   0  0  0  0  0  0  0  0  0  0  0  0
   33.8800  -16.5900    0.0000 C   0  0  0  0  0  0  0  0  0  0  0  0
   25.6200  -21.4200    0.0000 O   0  0  0  0  0  0  0  0  0  0  0  0
   29.1200  -17.9900    0.0000 C   0  0  0  0  0  0  0  0  0  0  0  0
   29.1200  -16.5900    0.0000 O   0  0  0  0  0  0  0  0  0  0  0  0
   32.6900  -15.9600    0.0000 C   0  0  0  0  0  0  0  0  0  0  0  0
   33.8800  -14.9100    0.0000 C   0  0  0  0  0  0  0  0  0  0  0  0
   35.0000  -15.9600    0.0000 O   0  0  0  0  0  0  0  0  0  0  0  0
   35.0000  -14.2100    0.0000 C   0  0  0  0  0  0  0  0  0  0  0  0
   32.6900  -14.2100    0.0000 O   0  0  0  0  0  0  0  0  0  0  0  0
   36.1900  -14.9100    0.0000 O   0  0  0  0  0  0  0  0  0  0  0  0
   37.3800  -14.2100    0.0000 C   0  0  0  0  0  0  0  0  0  0  0  0
   38.5000  -14.9100    0.0000 C   0  0  0  0  0  0  0  0  0  0  0  0
   37.3800  -12.8800    0.0000 O   0  0  0  0  0  0  0  0  0  0  0  0
  1  2  1  0
  2  3  1  0
  3  4  2  0
  4  5  1  0
  5  6  1  0
  1  6  2  0
  4  7  1  0
  7  8  1  0
  9  8  1  6
  9 10  1  0
  5 10  1  0
  9 11  1  0
 11 12  1  0
 12 13  1  0
 13 14  1  0
 10 14  1  1
 11 15  1  1
 15 16  1  0
 16 17  1  0
 12 17  1  0
  2 18  2  0
  5 19  1  1
 14 20  1  1
 12 21  1  1
 17 22  1  0
 17 23  1  6
 22 24  1  0
 22 25  2  0
 24 26  1  0
 26 27  1  0
 27 28  1  0
 27 29  2  0
M  END
