 
     RDKit          2D

 26 27  0  0  1  0  0  0  0  0999 V2000
   32.1276  -18.8381    0.0000 N   0  0  0  0  0  0  0  0  0  0  0  0
   32.1276  -17.7275    0.0000 O   0  0  0  0  0  0  0  0  0  0  0  0
   30.8418  -19.6973    0.0000 O   0  0  0  0  0  0  0  0  0  0  0  0
   33.4778  -19.5804    0.0000 O   0  0  0  0  0  0  0  0  0  0  0  0
   18.2238  -19.1608    0.0000 C   0  0  0  0  0  0  0  0  0  0  0  0
   18.5519  -17.9891    0.0000 C   0  0  0  0  0  0  0  0  0  0  0  0
   19.3955  -18.8796    0.0000 C   0  0  0  0  0  0  0  0  0  0  0  0
   19.7236  -17.7079    0.0000 C   0  0  0  0  0  0  0  0  0  0  0  0
   18.4582  -16.3956    0.0000 N   0  0  0  0  0  0  0  0  0  0  0  0
   21.2702  -18.8796    0.0000 C   0  0  0  0  0  0  0  0  0  0  0  0
   20.9890  -17.7079    0.0000 C   0  0  0  0  0  0  0  0  0  0  0  0
   22.3013  -19.4420    0.0000 C   0  0  0  0  0  0  0  0  0  0  0  0
   23.3793  -20.3325    0.0000 O   0  0  0  0  0  0  0  0  0  0  0  0
   24.5979  -20.3325    0.0000 C   0  0  0  0  0  0  0  0  0  0  0  0
   25.2072  -19.2545    0.0000 C   0  0  0  0  0  0  0  0  0  0  0  0
   25.2072  -21.4573    0.0000 O   0  0  0  0  0  0  0  0  0  0  0  0
   26.4258  -19.2545    0.0000 C   0  0  0  0  0  0  0  0  0  0  0  0
   24.5979  -18.2234    0.0000 C   0  0  0  0  0  0  0  0  0  0  0  0
   25.2072  -17.1455    0.0000 O   0  0  0  0  0  0  0  0  0  0  0  0
   27.1320  -20.4782    0.0000 C   0  0  0  0  0  0  0  0  0  0  0  0
   28.5320  -20.4785    0.0000 C   0  0  0  0  0  0  0  0  0  0  0  0
   29.2322  -19.2662    0.0000 C   0  0  0  0  0  0  0  0  0  0  0  0
   28.5261  -18.0425    0.0000 C   0  0  0  0  0  0  0  0  0  0  0  0
   27.1261  -18.0422    0.0000 C   0  0  0  0  0  0  0  0  0  0  0  0
   17.7091  -15.2114    0.0000 C   0  0  0  0  0  0  0  0  0  0  0  0
   17.2289  -17.0083    0.0000 C   0  0  0  0  0  0  0  0  0  0  0  0
  1  2  2  0
  1  3  1  0
  1  4  1  0
  5  6  1  0
  7  5  1  6
  8  6  1  1
  7  9  1  0
  7 10  1  0
  8 11  1  0
 10 12  1  0
 12 13  1  6
 13 14  1  0
 14 15  1  0
 14 16  2  0
 15 17  1  0
 15 18  1  0
 18 19  1  0
  8  9  1  0
 11 12  1  0
 17 20  2  0
 20 21  1  0
 21 22  2  0
 22 23  1  0
 23 24  2  0
 17 24  1  0
  9 25  1  0
  9 26  1  0
M  CHG  4   1   1   3  -1   4  -1   9   1
M  END
