 
     RDKit          2D

 25 28  0  0  1  0  0  0  0  0999 V2000
   21.5776  -20.7553    0.0000 C   0  0  0  0  0  0  0  0  0  0  0  0
   21.5776  -22.1266    0.0000 C   0  0  0  0  0  0  0  0  0  0  0  0
   22.7680  -22.8123    0.0000 C   0  0  0  0  0  0  0  0  0  0  0  0
   22.7680  -20.0697    0.0000 C   0  0  0  0  0  0  0  0  0  0  0  0
   23.9515  -20.7553    0.0000 C   0  0  0  0  0  0  0  0  0  0  0  0
   23.9457  -22.1266    0.0000 C   0  0  0  0  0  0  0  0  0  0  0  0
   25.1304  -22.8173    0.0000 C   0  0  0  0  0  0  0  0  0  0  0  0
   26.3208  -22.1368    0.0000 C   0  0  0  0  0  0  0  0  0  0  0  0
   25.1422  -20.0747    0.0000 C   0  0  0  0  0  0  0  0  0  0  0  0
   26.3210  -20.7683    0.0000 C   0  0  0  0  0  0  0  0  0  0  0  0
   26.3434  -18.0328    0.0000 C   0  0  0  0  0  0  0  0  0  0  0  0
   25.1533  -18.7070    0.0000 C   0  0  0  0  0  0  0  0  0  0  0  0
   27.5222  -18.7265    0.0000 C   0  0  0  0  0  0  0  0  0  0  0  0
   27.5058  -20.0900    0.0000 C   0  0  0  0  0  0  0  0  0  0  0  0
   29.8674  -20.1185    0.0000 C   0  0  0  0  0  0  0  0  0  0  0  0
   29.8841  -18.7551    0.0000 C   0  0  0  0  0  0  0  0  0  0  0  0
   28.7114  -18.0589    0.0000 C   0  0  0  0  0  0  0  0  0  0  0  0
   20.3904  -22.8128    0.0000 O   0  0  0  0  0  0  0  0  0  0  0  0
   28.7280  -16.6878    0.0000 O   0  0  0  0  0  0  0  0  0  0  0  0
   29.9238  -16.0166    0.0000 C   0  0  0  0  0  0  0  0  0  0  0  0
   29.8704  -14.6453    0.0000 O   0  0  0  0  0  0  0  0  0  0  0  0
   31.1029  -16.7165    0.0000 C   0  0  0  0  0  0  0  0  0  0  0  0
   27.5131  -17.3547    0.0000 C   0  0  0  0  0  0  0  0  0  0  0  0
   23.9394  -19.3840    0.0000 C   0  0  0  0  0  0  0  0  0  0  0  0
   22.7551  -18.6984    0.0000 C   0  0  0  0  0  0  0  0  0  0  0  0
  6  3  1  1
  5  6  1  0
  6  7  1  0
  7  8  1  0
 13 14  1  0
 15 16  1  0
 16 17  1  0
 17 13  1  0
 14 15  1  1
 10  8  1  6
  2 18  2  0
  9  5  1  0
  5  4  1  0
  4  1  2  0
  1  2  1  0
 17 19  1  1
  9 10  1  0
 19 20  1  0
 10 14  1  0
 20 21  2  0
 13 11  1  0
 20 22  1  0
 11 12  1  0
 13 23  1  1
  9 12  1  1
  5 24  1  1
  2  3  1  0
  4 25  1  0
M  END
