 
     RDKit          2D

 95 96  0  2  1  0  0  0  0  0999 V2000
   16.9199  -15.1376    0.0000 O   0  0  0  0  0  0  0  0  0  0  0  0
   18.3197  -15.1376    0.0000 S   0  0  0  0  0  0  0  0  0  0  0  0
   18.3126  -16.5374    0.0000 O   0  0  0  0  0  0  0  0  0  0  0  0
   19.7196  -15.1376    0.0000 O   0  0  0  0  0  0  0  0  0  0  0  0
   18.3126  -13.7377    0.0000 O   0  0  0  0  0  0  0  0  0  0  0  0
    7.9748  -17.3139    0.0000 C   0  0  0  0  0  0  0  0  0  0  0  0
    8.3840  -16.0619    0.0000 C   0  0  0  0  0  0  0  0  0  0  0  0
    6.6623  -17.3139    0.0000 C   0  0  0  0  0  0  0  0  0  0  0  0
    9.6542  -18.4157    0.0000 O   0  0  0  0  0  0  0  0  0  0  0  0
    9.9192  -14.7014    0.0000 O   0  0  0  0  0  0  0  0  0  0  0  0
    7.3126  -15.2974    0.0000 O   0  0  0  0  0  0  0  0  0  0  0  0
    6.2652  -16.0619    0.0000 C   0  0  0  0  0  0  0  0  0  0  0  0
    5.3562  -18.0424    0.0000 C   0  0  0  0  0  0  0  0  0  0  0  0
    6.6684  -18.5720    0.0000 O   0  0  0  0  0  0  0  0  0  0  0  0
    8.5706  -20.4924    0.0000 C   0  0  0  0  0  0  0  0  0  0  0  0
    9.8890  -13.0759    0.0000 C   0  0  0  0  0  0  0  0  0  0  0  0
    5.0190  -15.6525    0.0000 C   0  0  0  0  0  0  0  0  0  0  0  0
    4.2303  -17.3741    0.0000 O   0  0  0  0  0  0  0  0  0  0  0  0
    8.5706  -21.8167    0.0000 C   0  0  0  0  0  0  0  0  0  0  0  0
    7.4208  -19.8364    0.0000 O   0  0  0  0  0  0  0  0  0  0  0  0
    8.7572  -12.4078    0.0000 C   0  0  0  0  0  0  0  0  0  0  0  0
   11.0388  -12.4078    0.0000 C   0  0  0  0  0  0  0  0  0  0  0  0
    7.4208  -22.4850    0.0000 C   0  0  0  0  0  0  0  0  0  0  0  0
    6.2891  -20.4924    0.0000 C   0  0  0  0  0  0  0  0  0  0  0  0
    8.7572  -11.0835    0.0000 C   0  0  0  0  0  0  0  0  0  0  0  0
    6.9273  -13.2264    0.0000 N   0  0  0  0  0  0  0  0  0  0  0  0
   11.0388  -11.0835    0.0000 C   0  0  0  0  0  0  0  0  0  0  0  0
   12.1705  -13.0580    0.0000 O   0  0  0  0  0  0  0  0  0  0  0  0
    6.2891  -21.8167    0.0000 C   0  0  0  0  0  0  0  0  0  0  0  0
    7.4208  -23.7973    0.0000 O   0  0  0  0  0  0  0  0  0  0  0  0
    5.1575  -19.8364    0.0000 C   0  0  0  0  0  0  0  0  0  0  0  0
    9.8890  -10.4272    0.0000 C   0  0  0  0  0  0  0  0  0  0  0  0
    7.8409  -10.3508    0.0000 O   0  0  0  0  0  0  0  0  0  0  0  0
    5.7955  -12.5703    0.0000 C   0  0  0  0  0  0  0  0  0  0  0  0
   12.1705  -10.4213    0.0000 O   0  0  0  0  0  0  0  0  0  0  0  0
    5.1513  -22.4670    0.0000 O   0  0  0  0  0  0  0  0  0  0  0  0
    4.0196  -20.4924    0.0000 O   0  0  0  0  0  0  0  0  0  0  0  0
    9.8830   -9.1149    0.0000 N   0  0  0  0  0  0  0  0  0  0  0  0
    4.6578  -13.2204    0.0000 N   0  0  0  0  0  0  0  0  0  0  0  0
    5.8015  -11.2581    0.0000 N   0  0  0  0  0  0  0  0  0  0  0  0
    8.7513   -8.4648    0.0000 C   0  0  0  0  0  0  0  0  0  0  0  0
    8.7452   -7.1585    0.0000 N   0  0  0  0  0  0  0  0  0  0  0  0
    7.6195   -9.1209    0.0000 N   0  0  0  0  0  0  0  0  0  0  0  0
    9.7777  -22.5113    0.0000 N   0  0  0  0  0  0  0  0  0  0  0  0
   10.9870  -21.8106    0.0000 C   0  0  0  0  0  0  0  0  0  0  0  0
   16.9199  -15.1376    0.0000 O   0  0  0  0  0  0  0  0  0  0  0  0
   18.3197  -15.1376    0.0000 S   0  0  0  0  0  0  0  0  0  0  0  0
   18.3126  -16.5374    0.0000 O   0  0  0  0  0  0  0  0  0  0  0  0
   19.7196  -15.1376    0.0000 O   0  0  0  0  0  0  0  0  0  0  0  0
   18.3126  -13.7377    0.0000 O   0  0  0  0  0  0  0  0  0  0  0  0
   16.9199  -15.1376    0.0000 O   0  0  0  0  0  0  0  0  0  0  0  0
   18.3197  -15.1376    0.0000 S   0  0  0  0  0  0  0  0  0  0  0  0
   18.3126  -16.5374    0.0000 O   0  0  0  0  0  0  0  0  0  0  0  0
   19.7196  -15.1376    0.0000 O   0  0  0  0  0  0  0  0  0  0  0  0
   18.3126  -13.7377    0.0000 O   0  0  0  0  0  0  0  0  0  0  0  0
    7.9748  -17.3139    0.0000 C   0  0  0  0  0  0  0  0  0  0  0  0
    8.3840  -16.0619    0.0000 C   0  0  0  0  0  0  0  0  0  0  0  0
    9.9192  -14.7014    0.0000 O   0  0  0  0  0  0  0  0  0  0  0  0
    9.8890  -13.0759    0.0000 C   0  0  0  0  0  0  0  0  0  0  0  0
    8.7572  -12.4078    0.0000 C   0  0  0  0  0  0  0  0  0  0  0  0
    8.7572  -11.0835    0.0000 C   0  0  0  0  0  0  0  0  0  0  0  0
    9.8890  -10.4272    0.0000 C   0  0  0  0  0  0  0  0  0  0  0  0
    9.8830   -9.1149    0.0000 N   0  0  0  0  0  0  0  0  0  0  0  0
    8.7513   -8.4648    0.0000 C   0  0  0  0  0  0  0  0  0  0  0  0
    8.7452   -7.1585    0.0000 N   0  0  0  0  0  0  0  0  0  0  0  0
    7.6195   -9.1209    0.0000 N   0  0  0  0  0  0  0  0  0  0  0  0
   11.0388  -11.0835    0.0000 C   0  0  0  0  0  0  0  0  0  0  0  0
   11.0388  -12.4078    0.0000 C   0  0  0  0  0  0  0  0  0  0  0  0
   12.1705  -13.0580    0.0000 O   0  0  0  0  0  0  0  0  0  0  0  0
   12.1705  -10.4213    0.0000 O   0  0  0  0  0  0  0  0  0  0  0  0
    7.8409  -10.3508    0.0000 O   0  0  0  0  0  0  0  0  0  0  0  0
    6.9273  -13.2264    0.0000 N   0  0  0  0  0  0  0  0  0  0  0  0
    5.7955  -12.5703    0.0000 C   0  0  0  0  0  0  0  0  0  0  0  0
    4.6578  -13.2204    0.0000 N   0  0  0  0  0  0  0  0  0  0  0  0
    5.8015  -11.2581    0.0000 N   0  0  0  0  0  0  0  0  0  0  0  0
    7.3126  -15.2974    0.0000 O   0  0  0  0  0  0  0  0  0  0  0  0
    6.2652  -16.0619    0.0000 C   0  0  0  0  0  0  0  0  0  0  0  0
    6.6623  -17.3139    0.0000 C   0  0  0  0  0  0  0  0  0  0  0  0
    5.3562  -18.0424    0.0000 C   0  0  0  0  0  0  0  0  0  0  0  0
    4.2303  -17.3741    0.0000 O   0  0  0  0  0  0  0  0  0  0  0  0
    6.6684  -18.5720    0.0000 O   0  0  0  0  0  0  0  0  0  0  0  0
    5.0190  -15.6525    0.0000 C   0  0  0  0  0  0  0  0  0  0  0  0
    9.6542  -18.4157    0.0000 O   0  0  0  0  0  0  0  0  0  0  0  0
    8.5706  -20.4924    0.0000 C   0  0  0  0  0  0  0  0  0  0  0  0
    8.5706  -21.8167    0.0000 C   0  0  0  0  0  0  0  0  0  0  0  0
    7.4208  -22.4850    0.0000 C   0  0  0  0  0  0  0  0  0  0  0  0
    6.2891  -21.8167    0.0000 C   0  0  0  0  0  0  0  0  0  0  0  0
    5.1513  -22.4670    0.0000 O   0  0  0  0  0  0  0  0  0  0  0  0
    6.2891  -20.4924    0.0000 C   0  0  0  0  0  0  0  0  0  0  0  0
    7.4208  -19.8364    0.0000 O   0  0  0  0  0  0  0  0  0  0  0  0
    5.1575  -19.8364    0.0000 C   0  0  0  0  0  0  0  0  0  0  0  0
    4.0196  -20.4924    0.0000 O   0  0  0  0  0  0  0  0  0  0  0  0
    7.4208  -23.7973    0.0000 O   0  0  0  0  0  0  0  0  0  0  0  0
    9.7777  -22.5113    0.0000 N   0  0  0  0  0  0  0  0  0  0  0  0
   10.9870  -21.8106    0.0000 C   0  0  0  0  0  0  0  0  0  0  0  0
  1  2  1  0
  2  3  2  0
  2  4  1  0
  2  5  2  0
 46 47  1  0
 47 48  2  0
 47 49  1  0
 47 50  2  0
 51 52  1  0
 52 53  2  0
 52 54  1  0
 52 55  2  0
  6  7  1  0
  6  8  1  0
  6  9  1  6
  7 10  1  1
  7 11  1  0
  8 12  1  0
  8 13  1  0
  8 14  1  6
 15  9  1  1
 16 10  1  6
 12 17  1  6
 13 18  2  0
 15 19  1  0
 15 20  1  0
 16 21  1  0
 16 22  1  0
 19 23  1  0
 20 24  1  0
 21 25  1  0
 21 26  1  1
 22 27  1  0
 22 28  1  1
 23 29  1  0
 23 30  1  6
 24 31  1  6
 25 32  1  0
 25 33  1  6
 26 34  1  0
 27 35  1  6
 29 36  1  1
 31 37  1  0
 32 38  1  1
 34 39  1  0
 34 40  2  0
 38 41  1  0
 41 42  2  0
 41 43  1  0
 11 12  1  0
 24 29  1  0
 27 32  1  0
 19 44  1  1
 44 45  1  0
 56 57  1  0
 56 78  1  0
 56 83  1  6
 57 58  1  1
 57 76  1  0
 78 77  1  0
 78 79  1  0
 78 81  1  6
 84 83  1  1
 59 58  1  6
 77 82  1  6
 79 80  2  0
 84 85  1  0
 84 90  1  0
 59 60  1  0
 59 68  1  0
 85 86  1  0
 90 89  1  0
 60 61  1  0
 60 72  1  1
 68 67  1  0
 68 69  1  1
 86 87  1  0
 86 93  1  6
 89 91  1  6
 61 62  1  0
 61 71  1  6
 72 73  1  0
 67 70  1  6
 87 88  1  1
 91 92  1  0
 62 63  1  1
 73 74  1  0
 73 75  2  0
 63 64  1  0
 64 65  2  0
 64 66  1  0
 76 77  1  0
 89 87  1  0
 67 62  1  0
 85 94  1  1
 94 95  1  0
M  STY  2   1 MUL   2 MUL
M  SLB  2   1   1   2   2
M  SCN  2   1 HT    2 HT 
M  SAL   1 15   1   2   3   4   5  46  47  48  49  50  51  52  53  54  55
M  SPA   1  5   1   2   3   4   5
M  SDI   1  4   15.5400  -17.5000   15.5400  -12.8800
M  SDI   1  4   21.0000  -12.8800   21.0000  -17.5000
M  SMT   1 3
M  SAL   2 15   6   7   8   9  10  11  12  13  14  15  16  17  18  19  20
M  SAL   2 15  21  22  23  24  25  26  27  28  29  30  31  32  33  34  35
M  SAL   2 15  36  37  38  39  40  41  42  43  44  45  56  57  58  59  60
M  SAL   2 15  61  62  63  64  65  66  67  68  69  70  71  72  73  74  75
M  SAL   2 15  76  77  78  79  80  81  82  83  84  85  86  87  88  89  90
M  SAL   2  5  91  92  93  94  95
M  SPA   2 15   6   7  10  16  21  25  32  38  41  42  43  27  22  28  35
M  SPA   2 15  33  26  34  39  40  11  12   8  13  18  14  17   9  15  19
M  SPA   2 10  23  29  36  24  20  31  37  30  44  45
M  SDI   2  4    2.2400  -24.4300    2.2400   -6.3000
M  SDI   2  4   13.7900   -6.3000   13.7900  -24.4300
M  SMT   2 2
M  END
