 
     RDKit          2D

 27 29  0  0  1  0  0  0  0  0999 V2000
   18.3400   -7.5600    0.0000 C   0  0  0  0  0  0  0  0  0  0  0  0
   18.6200   -6.3700    0.0000 C   0  0  0  0  0  0  0  0  0  0  0  0
   19.4600   -7.2800    0.0000 C   0  0  0  0  0  0  0  0  0  0  0  0
   17.2900   -6.1600    0.0000 O   0  0  0  0  0  0  0  0  0  0  0  0
   19.8100   -6.0900    0.0000 C   0  0  0  0  0  0  0  0  0  0  0  0
   18.5500   -4.7600    0.0000 N   0  0  0  0  0  0  0  0  0  0  0  0
   21.3500   -7.2800    0.0000 C   0  0  0  0  0  0  0  0  0  0  0  0
   21.0700   -6.0900    0.0000 C   0  0  0  0  0  0  0  0  0  0  0  0
   22.3300   -7.7700    0.0000 C   0  0  0  0  0  0  0  0  0  0  0  0
   23.3800   -8.6800    0.0000 O   0  0  0  0  0  0  0  0  0  0  0  0
   24.7800   -8.6800    0.0000 C   0  0  0  0  0  0  0  0  0  0  0  0
   25.4800   -9.8700    0.0000 O   0  0  0  0  0  0  0  0  0  0  0  0
   25.4800   -7.4900    0.0000 C   0  0  0  0  0  0  0  0  0  0  0  0
   26.8800   -7.4900    0.0000 C   0  0  0  0  0  0  0  0  0  0  0  0
   27.5800   -8.6800    0.0000 C   0  0  0  0  0  0  0  0  0  0  0  0
   28.9800   -8.6800    0.0000 C   0  0  0  0  0  0  0  0  0  0  0  0
   29.6800   -7.4900    0.0000 C   0  0  0  0  0  0  0  0  0  0  0  0
   28.9800   -6.3000    0.0000 C   0  0  0  0  0  0  0  0  0  0  0  0
   27.5800   -6.3000    0.0000 C   0  0  0  0  0  0  0  0  0  0  0  0
   24.7800   -6.2300    0.0000 C   0  0  0  0  0  0  0  0  0  0  0  0
   25.4800   -5.0400    0.0000 O   0  0  0  0  0  0  0  0  0  0  0  0
   17.2891   -5.3683    0.0000 C   0  0  0  0  0  0  0  0  0  0  0  0
   16.1425   -4.5880    0.0000 C   0  0  0  0  0  0  0  0  0  0  0  0
   18.5500   -3.3600    0.0000 C   0  0  0  0  0  0  0  0  0  0  0  0
   14.8921   -5.1918    0.0000 C   0  0  0  0  0  0  0  0  0  0  0  0
   13.7415   -4.4089    0.0000 C   0  0  0  0  0  0  0  0  0  0  0  0
   16.4500   -3.0800    0.0000 Br  0  0  0  0  0  0  0  0  0  0  0  0
  1  2  1  0
  1  3  1  0
  1  4  1  0
  2  5  1  0
  3  6  1  0
  3  7  1  6
  5  8  1  1
  7  9  1  0
  9 10  1  6
  2  4  1  0
  5  6  1  0
  8  9  1  0
 10 11  1  0
 11 12  2  0
 11 13  1  0
 13 14  1  0
 14 15  2  0
 15 16  1  0
 16 17  2  0
 17 18  1  0
 18 19  2  0
 14 19  1  0
 13 20  1  6
 20 21  1  0
  6 22  1  0
 22 23  1  0
  6 24  1  0
 23 25  1  0
 25 26  1  0
M  CHG  2   6   1  27  -1
M  END
