 
     RDKit          2D

 41 44  0  0  1  0  0  0  0  0999 V2000
   24.7006  -23.8099    0.0000 Na  0  0  0  0  0 15  0  0  0  0  0  0
    8.3300  -30.9400    0.0000 C   0  0  0  0  0  0  0  0  0  0  0  0
    8.3300  -32.2700    0.0000 C   0  0  0  0  0  0  0  0  0  0  0  0
    9.4500  -32.9700    0.0000 C   0  0  0  0  0  0  0  0  0  0  0  0
   10.6400  -32.2700    0.0000 C   0  0  0  0  0  0  0  0  0  0  0  0
   10.6400  -30.9400    0.0000 C   0  0  0  0  0  0  0  0  0  0  0  0
    9.4500  -30.3100    0.0000 C   0  0  0  0  0  0  0  0  0  0  0  0
   11.7600  -32.9700    0.0000 C   0  0  0  0  0  0  0  0  0  0  0  0
   12.9500  -32.2700    0.0000 C   0  0  0  0  0  0  0  0  0  0  0  0
   12.9500  -30.9400    0.0000 C   0  0  0  0  0  0  0  0  0  0  0  0
   11.7600  -30.3100    0.0000 C   0  0  0  0  0  0  0  0  0  0  0  0
   14.0700  -30.3100    0.0000 C   0  0  0  0  0  0  0  0  0  0  0  0
   14.0700  -28.9800    0.0000 C   0  0  0  0  0  0  0  0  0  0  0  0
   12.9500  -28.2800    0.0000 C   0  0  0  0  0  0  0  0  0  0  0  0
   11.7600  -28.9800    0.0000 C   0  0  0  0  0  0  0  0  0  0  0  0
   16.3800  -30.3100    0.0000 C   0  0  0  0  0  0  0  0  0  0  0  0
   16.3800  -28.9800    0.0000 C   0  0  0  0  0  0  0  0  0  0  0  0
   15.2600  -28.2800    0.0000 C   0  0  0  0  0  0  0  0  0  0  0  0
   10.6400  -29.6100    0.0000 C   0  0  0  0  0  0  0  0  0  0  0  0
   10.6400  -28.2800    0.0000 O   0  0  0  0  0  0  0  0  0  0  0  0
   14.0700  -27.6500    0.0000 C   0  0  0  0  0  0  0  0  0  0  0  0
   17.5700  -28.2800    0.0000 C   0  0  0  0  0  0  0  0  0  0  0  0
   11.7600  -31.6400    0.0000 F   0  0  0  0  0  0  0  0  0  0  0  0
   16.2400  -27.3000    0.0000 O   0  0  0  0  0  0  0  0  0  0  0  0
    7.1400  -32.9700    0.0000 O   0  0  0  0  0  0  0  0  0  0  0  0
   15.2387  -26.8802    0.0000 C   0  0  0  0  0  0  0  0  0  0  0  0
   14.0320  -26.2076    0.0000 O   0  0  0  0  0  0  0  0  0  0  0  0
   16.4560  -26.1523    0.0000 C   0  0  0  0  0  0  0  0  0  0  0  0
   17.6860  -26.8374    0.0000 O   0  0  0  0  0  0  0  0  0  0  0  0
   18.9174  -26.1013    0.0000 C   0  0  0  0  0  0  0  0  0  0  0  0
   20.1306  -26.7776    0.0000 C   0  0  0  0  0  0  0  0  0  0  0  0
   18.8962  -24.7100    0.0000 O   0  0  0  0  0  0  0  0  0  0  0  0
   21.3390  -26.0551    0.0000 C   0  0  0  0  0  0  0  0  0  0  0  0
   22.5639  -26.7375    0.0000 C   0  0  0  0  0  0  0  0  0  0  0  0
   20.1517  -28.2100    0.0000 C   0  0  0  0  0  0  0  0  0  0  0  0
   22.5854  -28.1393    0.0000 C   0  0  0  0  0  0  0  0  0  0  0  0
   21.4017  -28.8472    0.0000 C   0  0  0  0  0  0  0  0  0  0  0  0
   23.7467  -26.0301    0.0000 S   0  0  0  0  0  0  0  0  0  0  0  0
   24.4231  -27.2564    0.0000 O   0  0  0  0  0  0  0  0  0  0  0  0
   23.1004  -24.7896    0.0000 O   0  0  0  0  0  0  0  0  0  0  0  0
   24.9409  -25.3373    0.0000 O   0  0  0  0  0  0  0  0  0  0  0  0
  2  3  1  0
  3  4  1  0
  4  5  2  0
  5  6  1  0
  6  7  1  0
  2  7  2  0
  5  8  1  0
  8  9  1  0
 10  9  1  6
 10 11  1  0
  6 11  1  0
 10 12  1  0
 12 13  1  0
 13 14  1  0
 14 15  1  0
 11 15  1  0
 12 16  1  1
 16 17  1  0
 17 18  1  0
 13 18  1  0
  6 19  1  1
 15 20  1  1
 13 21  1  1
 17 22  1  6
 11 23  1  6
 18 24  1  6
  3 25  2  0
 18 26  1  0
 26 27  2  0
 26 28  1  0
 28 29  1  0
 29 30  1  0
 30 31  1  0
 30 32  2  0
 31 33  2  0
 33 34  1  0
 31 35  1  0
 34 36  2  0
 36 37  1  0
 37 35  2  0
 34 38  1  0
 38 39  2  0
 38 40  2  0
 38 41  1  0
M  CHG  2   1   1  41  -1
M  END
