13211-37-5.mol
     RDKit          2D

 14 13  0  0  0  0  0  0  0  0999 V2000
    0.1315   -0.3109    0.0000 C   0  0  0  0  0  0  0  0  0  0  0  0
   -0.2770    0.3946    0.0000 C   0  0  0  0  0  0  0  0  0  0  0  0
   -0.2770   -1.0322    0.0000 C   0  0  0  0  0  0  0  0  0  0  0  0
    0.9665   -0.3109    0.0000 S   0  0  0  0  0  0  0  0  0  0  0  0
   -1.1000    0.3946    0.0000 C   0  0  0  0  0  0  0  0  0  0  0  0
   -1.1000   -1.0322    0.0000 C   0  0  0  0  0  0  0  0  0  0  0  0
    0.9764    0.4743    0.0000 O   0  0  0  0  0  0  0  0  0  0  0  0
    0.9764   -1.1697    0.0000 O   0  0  0  0  0  0  0  0  0  0  0  0
    1.7915   -0.3109    0.0000 O   0  0  0  0  0  0  0  0  0  0  0  0
   -1.5205   -0.3109    0.0000 C   0  0  0  0  0  0  0  0  0  0  0  0
   -1.5205    1.1140    0.0000 O   0  0  0  0  0  0  0  0  0  0  0  0
   -2.3455   -0.3109    0.0000 O   0  0  0  0  0  0  0  0  0  0  0  0
   -2.3315    0.9625    0.0000 C   0  0  0  0  0  0  0  0  0  0  0  0
    2.3455    1.1697    0.0000 K   0  0  0  0  0 15  0  0  0  0  0  0
  1  2  2  0
  1  3  1  0
  1  4  1  0
  2  5  1  0
  3  6  2  0
  4  7  2  0
  4  8  2  0
  4  9  1  0
  5 10  2  0
  5 11  1  0
  6 10  1  0
 10 12  1  0
 11 13  1  0
M  CHG  2   9  -1  14   1
M  END
