 
     RDKit          2D

 36 39  0  0  1  0  0  0  0  0999 V2000
    6.3892  -13.6510    0.0000 C   0  0  0  0  0  0  0  0  0  0  0  0
    6.3892  -15.0117    0.0000 C   0  0  0  0  0  0  0  0  0  0  0  0
    7.5675  -15.6920    0.0000 C   0  0  0  0  0  0  0  0  0  0  0  0
    8.7459  -15.0117    0.0000 C   0  0  0  0  0  0  0  0  0  0  0  0
    8.7459  -13.6510    0.0000 C   0  0  0  0  0  0  0  0  0  0  0  0
    7.5675  -12.9707    0.0000 C   0  0  0  0  0  0  0  0  0  0  0  0
    9.9243  -15.6920    0.0000 C   0  0  0  0  0  0  0  0  0  0  0  0
   11.1026  -15.0117    0.0000 C   0  0  0  0  0  0  0  0  0  0  0  0
   11.1026  -13.6510    0.0000 C   0  0  0  0  0  0  0  0  0  0  0  0
    9.9243  -12.9707    0.0000 C   0  0  0  0  0  0  0  0  0  0  0  0
   12.2810  -12.9707    0.0000 C   0  0  0  0  0  0  0  0  0  0  0  0
   12.2810  -11.6100    0.0000 C   0  0  0  0  0  0  0  0  0  0  0  0
   11.1026  -10.9297    0.0000 C   0  0  0  0  0  0  0  0  0  0  0  0
    9.9243  -11.6100    0.0000 C   0  0  0  0  0  0  0  0  0  0  0  0
   14.6377  -12.9707    0.0000 C   0  0  0  0  0  0  0  0  0  0  0  0
   14.6377  -11.6100    0.0000 C   0  0  0  0  0  0  0  0  0  0  0  0
   13.4594  -10.9297    0.0000 C   0  0  0  0  0  0  0  0  0  0  0  0
    8.7459  -12.2903    0.0000 C   0  0  0  0  0  0  0  0  0  0  0  0
    8.7479  -10.9309    0.0000 O   0  0  0  0  0  0  0  0  0  0  0  0
   12.2810  -10.2494    0.0000 C   0  0  0  0  0  0  0  0  0  0  0  0
   15.8036  -10.9368    0.0000 C   0  0  0  0  0  0  0  0  0  0  0  0
   13.4594   -9.2289    0.0000 C   0  0  0  0  0  0  0  0  0  0  0  0
    9.9243  -14.3313    0.0000 F   0  0  0  0  0  0  0  0  0  0  0  0
   15.2677   -9.8294    0.0000 O   0  0  0  0  0  0  0  0  0  0  0  0
    5.2109  -15.6920    0.0000 O   0  0  0  0  0  0  0  0  0  0  0  0
   14.6417   -8.5463    0.0000 O   0  0  0  0  0  0  0  0  0  0  0  0
   12.2849   -8.5508    0.0000 C   0  0  0  0  0  0  0  0  0  0  0  0
   11.1250   -9.2207    0.0000 O   0  0  0  0  0  0  0  0  0  0  0  0
    9.9245   -8.5280    0.0000 C   0  0  0  0  0  0  0  0  0  0  0  0
    8.7188   -9.2247    0.0000 C   0  0  0  0  0  0  0  0  0  0  0  0
    7.5362   -8.5423    0.0000 C   0  0  0  0  0  0  0  0  0  0  0  0
    9.9243   -7.1401    0.0000 O   0  0  0  0  0  0  0  0  0  0  0  0
   16.6677   -9.8294    0.0000 C   0  0  0  0  0  0  0  0  0  0  0  0
   17.3532  -11.0163    0.0000 O   0  0  0  0  0  0  0  0  0  0  0  0
   17.3786   -8.5985    0.0000 C   0  0  0  0  0  0  0  0  0  0  0  0
   18.7600   -8.5989    0.0000 C   0  0  0  0  0  0  0  0  0  0  0  0
  1  2  1  0
  2  3  1  0
  3  4  2  0
  4  5  1  0
  5  6  1  0
  1  6  2  0
  4  7  1  0
  7  8  1  0
  9  8  1  6
  9 10  1  0
  5 10  1  0
  9 11  1  0
 11 12  1  0
 12 13  1  0
 13 14  1  0
 10 14  1  0
 11 15  1  1
 15 16  1  0
 16 17  1  0
 12 17  1  0
  5 18  1  1
 14 19  1  1
 12 20  1  1
 16 21  1  1
 17 22  1  0
 10 23  1  6
 17 24  1  6
  2 25  2  0
 22 26  2  0
 22 27  1  0
 27 28  1  0
 28 29  1  0
 29 30  1  0
 30 31  1  0
 29 32  2  0
 24 33  1  0
 33 34  2  0
 33 35  1  0
 35 36  1  0
M  END
