 
     RDKit          2D

 23 24  0  0  1  0  0  0  0  0999 V2000
   28.3306  -36.1582    0.0000 C   0  0  0  0  0  0  0  0  0  0  0  0
   28.6501  -35.0172    0.0000 C   0  0  0  0  0  0  0  0  0  0  0  0
   29.4716  -35.8843    0.0000 C   0  0  0  0  0  0  0  0  0  0  0  0
   29.7911  -34.7434    0.0000 C   0  0  0  0  0  0  0  0  0  0  0  0
   28.5589  -33.4655    0.0000 N   0  0  0  0  0  0  0  0  0  0  0  0
   31.2971  -35.8843    0.0000 C   0  0  0  0  0  0  0  0  0  0  0  0
   31.0233  -34.7434    0.0000 C   0  0  0  0  0  0  0  0  0  0  0  0
   32.3012  -36.4320    0.0000 C   0  0  0  0  0  0  0  0  0  0  0  0
   33.3509  -37.2991    0.0000 O   0  0  0  0  0  0  0  0  0  0  0  0
   34.5375  -37.2991    0.0000 C   0  0  0  0  0  0  0  0  0  0  0  0
   35.1308  -36.2494    0.0000 C   0  0  0  0  0  0  0  0  0  0  0  0
   35.1308  -38.3944    0.0000 O   0  0  0  0  0  0  0  0  0  0  0  0
   36.3175  -36.2494    0.0000 C   0  0  0  0  0  0  0  0  0  0  0  0
   34.5375  -35.2453    0.0000 C   0  0  0  0  0  0  0  0  0  0  0  0
   35.1308  -34.1957    0.0000 O   0  0  0  0  0  0  0  0  0  0  0  0
   37.0052  -37.4410    0.0000 C   0  0  0  0  0  0  0  0  0  0  0  0
   38.3684  -37.4413    0.0000 C   0  0  0  0  0  0  0  0  0  0  0  0
   39.0503  -36.2608    0.0000 C   0  0  0  0  0  0  0  0  0  0  0  0
   38.3627  -35.0692    0.0000 C   0  0  0  0  0  0  0  0  0  0  0  0
   36.9994  -35.0689    0.0000 C   0  0  0  0  0  0  0  0  0  0  0  0
   27.8294  -32.3124    0.0000 C   0  0  0  0  0  0  0  0  0  0  0  0
   27.3618  -34.0621    0.0000 C   0  0  0  0  0  0  0  0  0  0  0  0
   32.2610  -32.4960    0.0000 Br  0  0  0  0  0  0  0  0  0  0  0  0
  1  2  1  0
  3  1  1  6
  4  2  1  1
  3  5  1  0
  3  6  1  0
  4  7  1  0
  6  8  1  0
  8  9  1  0
  9 10  1  0
 10 11  1  0
 10 12  2  0
 11 13  1  0
 11 14  1  6
 14 15  1  0
  4  5  1  0
  7  8  1  0
 13 16  2  0
 16 17  1  0
 17 18  2  0
 18 19  1  0
 19 20  2  0
 13 20  1  0
  5 21  1  0
  5 22  1  0
M  CHG  2   5   1  23  -1
M  END
