 
     RDKit          2D

 36 39  0  0  1  0  0  0  0  0999 V2000
   18.6476  -17.5714    0.0000 C   0  0  0  0  0  0  0  0  0  0  0  0
   18.6476  -18.9149    0.0000 C   0  0  0  0  0  0  0  0  0  0  0  0
   19.8111  -19.5866    0.0000 C   0  0  0  0  0  0  0  0  0  0  0  0
   20.9746  -18.9149    0.0000 C   0  0  0  0  0  0  0  0  0  0  0  0
   20.9746  -17.5714    0.0000 C   0  0  0  0  0  0  0  0  0  0  0  0
   19.8111  -16.8996    0.0000 C   0  0  0  0  0  0  0  0  0  0  0  0
   22.1382  -19.5866    0.0000 C   0  0  0  0  0  0  0  0  0  0  0  0
   23.3015  -18.9149    0.0000 C   0  0  0  0  0  0  0  0  0  0  0  0
   23.3015  -17.5714    0.0000 C   0  0  0  0  0  0  0  0  0  0  0  0
   22.1382  -16.8996    0.0000 C   0  0  0  0  0  0  0  0  0  0  0  0
   24.4651  -16.8996    0.0000 C   0  0  0  0  0  0  0  0  0  0  0  0
   24.4651  -15.5561    0.0000 C   0  0  0  0  0  0  0  0  0  0  0  0
   23.3015  -14.8844    0.0000 C   0  0  0  0  0  0  0  0  0  0  0  0
   22.1382  -15.5561    0.0000 C   0  0  0  0  0  0  0  0  0  0  0  0
   26.7921  -16.8996    0.0000 C   0  0  0  0  0  0  0  0  0  0  0  0
   26.7921  -15.5561    0.0000 C   0  0  0  0  0  0  0  0  0  0  0  0
   25.6286  -14.8844    0.0000 C   0  0  0  0  0  0  0  0  0  0  0  0
   20.9746  -16.2278    0.0000 C   0  0  0  0  0  0  0  0  0  0  0  0
   20.9765  -14.8856    0.0000 O   0  0  0  0  0  0  0  0  0  0  0  0
   24.4651  -14.2127    0.0000 C   0  0  0  0  0  0  0  0  0  0  0  0
   27.9432  -14.8914    0.0000 C   0  0  0  0  0  0  0  0  0  0  0  0
   25.6286  -13.2051    0.0000 C   0  0  0  0  0  0  0  0  0  0  0  0
   22.1382  -18.2431    0.0000 F   0  0  0  0  0  0  0  0  0  0  0  0
   27.3464  -13.7974    0.0000 O   0  0  0  0  0  0  0  0  0  0  0  0
   17.4842  -19.5866    0.0000 O   0  0  0  0  0  0  0  0  0  0  0  0
   26.7961  -12.5311    0.0000 O   0  0  0  0  0  0  0  0  0  0  0  0
   24.4690  -12.5355    0.0000 C   0  0  0  0  0  0  0  0  0  0  0  0
   23.3237  -13.1970    0.0000 O   0  0  0  0  0  0  0  0  0  0  0  0
   28.7322  -13.7974    0.0000 C   0  0  0  0  0  0  0  0  0  0  0  0
   29.4335  -15.0127    0.0000 O   0  0  0  0  0  0  0  0  0  0  0  0
   29.4307  -12.5875    0.0000 C   0  0  0  0  0  0  0  0  0  0  0  0
   30.8165  -12.5875    0.0000 C   0  0  0  0  0  0  0  0  0  0  0  0
   22.1401  -12.5134    0.0000 C   0  0  0  0  0  0  0  0  0  0  0  0
   20.9300  -13.2121    0.0000 C   0  0  0  0  0  0  0  0  0  0  0  0
   22.1409  -11.0989    0.0000 O   0  0  0  0  0  0  0  0  0  0  0  0
   19.7253  -12.5168    0.0000 C   0  0  0  0  0  0  0  0  0  0  0  0
  1  2  1  0
  2  3  1  0
  3  4  2  0
  4  5  1  0
  5  6  1  0
  1  6  2  0
  4  7  1  0
  7  8  1  0
  9  8  1  6
  9 10  1  0
  5 10  1  0
  9 11  1  0
 11 12  1  0
 12 13  1  0
 13 14  1  0
 10 14  1  0
 11 15  1  1
 15 16  1  0
 16 17  1  0
 12 17  1  0
  5 18  1  1
 14 19  1  1
 12 20  1  1
 16 21  1  6
 17 22  1  0
 10 23  1  6
 17 24  1  6
  2 25  2  0
 22 26  2  0
 22 27  1  0
 27 28  1  0
 24 29  1  0
 29 30  2  0
 29 31  1  0
 31 32  1  0
 28 33  1  0
 33 34  1  0
 33 35  2  0
 34 36  1  0
M  END
