 
     RDKit          2D

 19 18  0  1  1  0  0  0  0  0999 V2000
   12.4915  -16.1444    0.0000 N   0  0  0  0  0  0  0  0  0  0  0  0
   12.4915  -17.5456    0.0000 C   0  0  0  0  0  0  0  0  0  0  0  0
   13.7079  -18.2462    0.0000 N   0  0  0  0  0  0  0  0  0  0  0  0
   13.7079  -15.4438    0.0000 C   0  0  0  0  0  0  0  0  0  0  0  0
   14.9172  -16.1444    0.0000 C   0  0  0  0  0  0  0  0  0  0  0  0
   14.9111  -17.5456    0.0000 C   0  0  0  0  0  0  0  0  0  0  0  0
   16.1215  -18.2514    0.0000 N   0  0  0  0  0  0  0  0  0  0  0  0
   17.3381  -17.5559    0.0000 C   0  0  0  0  0  0  0  0  0  0  0  0
   17.3441  -16.1547    0.0000 C   0  0  0  0  0  0  0  0  0  0  0  0
   16.1336  -15.4490    0.0000 N   0  0  0  0  0  0  0  0  0  0  0  0
   18.5491  -15.4580    0.0000 C   0  0  0  0  0  0  0  0  0  0  0  0
   19.7592  -16.1586    0.0000 C   0  0  0  0  0  0  0  0  0  0  0  0
   20.9693  -15.4650    0.0000 C   0  0  0  0  0  0  0  0  0  0  0  0
   19.7561  -17.5598    0.0000 O   0  0  0  0  0  0  0  0  0  0  0  0
   18.5496  -14.0569    0.0000 O   0  0  0  0  0  0  0  0  0  0  0  0
   11.2784  -18.2468    0.0000 N   0  0  0  0  0  0  0  0  0  0  0  0
   13.7096  -14.0426    0.0000 O   0  0  0  0  0  0  0  0  0  0  0  0
   24.7359  -16.7106    0.0000 Cl  0  0  0  0  0  0  0  0  0  0  0  0
   24.7359  -16.7106    0.0000 Cl  0  0  0  0  0  0  0  0  0  0  0  0
  9  8  1  1
  9 10  1  0
 10  5  1  0
  4  1  1  0
  9 11  1  0
 11 12  1  0
 12 13  1  6
  1  2  1  0
 12 14  1  0
  2  3  2  0
 11 15  1  1
  3  6  1  0
  2 16  1  0
  5  4  1  0
  4 17  2  0
  5  6  2  0
  6  7  1  0
  7  8  1  0
M  STY  1   1 MUL
M  SLB  1   1   1
M  SCN  1   1 HT 
M  SAL   1  2  18  19
M  SPA   1  1  18
M  SDI   1  4   23.6600  -17.6400   23.6600  -15.8200
M  SDI   1  4   25.2700  -15.8200   25.2700  -17.6400
M  SMT   1 2
M  END
