 
     RDKit          2D

 30 34  0  0  0  0  0  0  0  0999 V2000
   33.2500  -28.4200    0.0000 C   0  0  0  0  0  0  0  0  0  0  0  0
   33.2500  -29.8200    0.0000 C   0  0  0  0  0  0  0  0  0  0  0  0
   34.4624  -30.5200    0.0000 C   0  0  0  0  0  0  0  0  0  0  0  0
   35.6749  -29.8200    0.0000 C   0  0  0  0  0  0  0  0  0  0  0  0
   35.6749  -28.4200    0.0000 N   0  0  0  0  0  0  0  0  0  0  0  0
   34.4624  -27.7200    0.0000 C   0  0  0  0  0  0  0  0  0  0  0  0
   32.0376  -30.5200    0.0000 N   0  0  0  0  0  0  0  0  0  0  0  0
   36.9060  -27.7090    0.0000 C   0  0  0  0  0  0  0  0  0  0  0  0
   38.1112  -28.4047    0.0000 C   0  0  0  0  0  0  0  0  0  0  0  0
   39.2935  -27.7219    0.0000 C   0  0  0  0  0  0  0  0  0  0  0  0
   40.4875  -28.4112    0.0000 N   0  0  0  0  0  0  0  0  0  0  0  0
   30.9024  -29.7327    0.0000 C   0  0  0  0  0  0  0  0  0  0  0  0
   29.8066  -30.5707    0.0000 N   0  0  0  0  0  0  0  0  0  0  0  0
   30.2649  -31.8718    0.0000 C   0  0  0  0  0  0  0  0  0  0  0  0
   31.6440  -31.8379    0.0000 C   0  0  0  0  0  0  0  0  0  0  0  0
   29.5949  -33.1010    0.0000 C   0  0  0  0  0  0  0  0  0  0  0  0
   30.3244  -34.2259    0.0000 C   0  0  0  0  0  0  0  0  0  0  0  0
   31.7035  -34.2621    0.0000 C   0  0  0  0  0  0  0  0  0  0  0  0
   32.3735  -33.0328    0.0000 C   0  0  0  0  0  0  0  0  0  0  0  0
   29.6349  -35.4565    0.0000 Cl  0  0  0  0  0  0  0  0  0  0  0  0
   30.8698  -28.3500    0.0000 O   0  0  0  0  0  0  0  0  0  0  0  0
   40.8974  -29.7499    0.0000 C   0  0  0  0  0  0  0  0  0  0  0  0
   42.3028  -29.7732    0.0000 N   0  0  0  0  0  0  0  0  0  0  0  0
   42.7593  -28.4437    0.0000 C   0  0  0  0  0  0  0  0  0  0  0  0
   41.6359  -27.5989    0.0000 C   0  0  0  0  0  0  0  0  0  0  0  0
   40.0495  -30.8770    0.0000 O   0  0  0  0  0  0  0  0  0  0  0  0
   44.1489  -27.7737    0.0000 C   0  0  0  0  0  0  0  0  0  0  0  0
   44.1446  -26.3737    0.0000 C   0  0  0  0  0  0  0  0  0  0  0  0
   42.9251  -25.6747    0.0000 C   0  0  0  0  0  0  0  0  0  0  0  0
   41.6449  -26.3785    0.0000 C   0  0  0  0  0  0  0  0  0  0  0  0
  1  2  1  0
  2  3  1  0
  3  4  1  0
  4  5  1  0
  5  6  1  0
  1  6  1  0
  2  7  1  0
  5  8  1  0
  8  9  1  0
  9 10  1  0
 10 11  1  0
  7 12  1  0
 12 13  1  0
 13 14  1  0
 14 15  2  0
  7 15  1  0
 14 16  1  0
 16 17  2  0
 17 18  1  0
 18 19  2  0
 15 19  1  0
 17 20  1  0
 12 21  2  0
 11 22  1  0
 22 23  1  0
 23 24  1  0
 24 25  2  0
 11 25  1  0
 22 26  2  0
 24 27  1  0
 27 28  2  0
 28 29  1  0
 29 30  2  0
 25 30  1  0
M  END
