 
     RDKit          2D

 43 45  0  0  1  0  0  0  0  0999 V2000
   21.7541  -14.0704    0.0000 C   0  0  0  0  0  0  0  0  0  0  0  0
   21.7541  -15.4759    0.0000 C   0  0  0  0  0  0  0  0  0  0  0  0
   22.9742  -16.1786    0.0000 C   0  0  0  0  0  0  0  0  0  0  0  0
   22.9742  -13.3677    0.0000 C   0  0  0  0  0  0  0  0  0  0  0  0
   24.1871  -14.0704    0.0000 C   0  0  0  0  0  0  0  0  0  0  0  0
   24.1809  -15.4759    0.0000 C   0  0  0  0  0  0  0  0  0  0  0  0
   25.3950  -16.1837    0.0000 C   0  0  0  0  0  0  0  0  0  0  0  0
   26.6153  -15.4863    0.0000 C   0  0  0  0  0  0  0  0  0  0  0  0
   25.4072  -13.3728    0.0000 C   0  0  0  0  0  0  0  0  0  0  0  0
   26.6153  -14.0838    0.0000 C   0  0  0  0  0  0  0  0  0  0  0  0
   26.6383  -11.2802    0.0000 C   0  0  0  0  0  0  0  0  0  0  0  0
   25.4186  -11.9712    0.0000 C   0  0  0  0  0  0  0  0  0  0  0  0
   27.8464  -11.9912    0.0000 C   0  0  0  0  0  0  0  0  0  0  0  0
   27.8296  -13.3886    0.0000 C   0  0  0  0  0  0  0  0  0  0  0  0
   29.0312  -14.1020    0.0000 C   0  0  0  0  0  0  0  0  0  0  0  0
   30.2500  -13.4178    0.0000 C   0  0  0  0  0  0  0  0  0  0  0  0
   29.0652  -11.3070    0.0000 C   0  0  0  0  0  0  0  0  0  0  0  0
   30.2644  -12.0218    0.0000 C   0  0  0  0  0  0  0  0  0  0  0  0
   31.4830  -11.3407    0.0000 C   0  0  0  0  0  0  0  0  0  0  0  0
   31.5026   -9.9448    0.0000 C   0  0  0  0  0  0  0  0  0  0  0  0
   30.3033   -9.2300    0.0000 C   0  0  0  0  0  0  0  0  0  0  0  0
   29.0381   -9.9111    0.0000 C   0  0  0  0  0  0  0  0  0  0  0  0
   30.2931   -7.8241    0.0000 C   0  0  0  0  0  0  0  0  0  0  0  0
   29.0708   -7.1304    0.0000 O   0  0  0  0  0  0  0  0  0  0  0  0
   31.5050   -7.1124    0.0000 O   0  0  0  0  0  0  0  0  0  0  0  0
   31.5138   -8.5197    0.0000 C   0  0  0  0  0  0  0  0  0  0  0  0
   24.2073  -11.2586    0.0000 O   0  0  0  0  0  0  0  0  0  0  0  0
   20.5403  -16.1786    0.0000 O   0  0  0  0  0  0  0  0  0  0  0  0
   19.3265  -15.4759    0.0000 C   0  0  0  0  0  0  0  0  0  0  0  0
   18.1127  -16.1786    0.0000 C   0  0  0  0  0  0  0  0  0  0  0  0
   16.8990  -15.4759    0.0000 C   0  0  0  0  0  0  0  0  0  0  0  0
   15.6852  -16.1786    0.0000 C   0  0  0  0  0  0  0  0  0  0  0  0
   14.4672  -15.4773    0.0000 O   0  0  0  0  0  0  0  0  0  0  0  0
   19.3265  -14.0704    0.0000 O   0  0  0  0  0  0  0  0  0  0  0  0
   15.6869  -17.5841    0.0000 O   0  0  0  0  0  0  0  0  0  0  0  0
   29.9005  -10.6136    0.0000 C   0  0  0  0  0  0  0  0  0  0  0  0
   26.2287  -12.6720    0.0000 C   0  0  0  0  0  0  0  0  0  0  0  0
   24.2445  -12.6650    0.0000 C   0  0  0  0  0  0  0  0  0  0  0  0
   27.8858  -14.7874    0.0000 C   0  0  0  0  0  0  0  0  0  0  0  0
   22.2579  -17.7424    0.0000 C   0  0  0  0  0  0  0  0  0  0  0  0
   23.6634  -17.7424    0.0000 C   0  0  0  0  0  0  0  0  0  0  0  0
   12.2355  -15.4901    0.0000 Na  0  0  0  0  0 15  0  0  0  0  0  0
   26.6587   -7.1142    0.0000 Na  0  0  0  0  0 15  0  0  0  0  0  0
 18 19  1  0
 19 20  1  0
 20 21  1  0
 21 22  1  0
 17 22  1  6
  3  6  1  0
 21 23  1  0
  5  4  1  0
 23 24  1  0
  4  1  1  0
 23 25  2  0
  9 10  1  0
 21 26  1  6
 10 14  1  0
 12 27  2  0
 13 11  2  0
  2 28  1  1
 11 12  1  0
 28 29  1  0
  9 12  1  1
 29 30  1  0
 30 31  1  0
 31 32  1  0
 32 33  1  0
  1  2  1  0
 29 34  2  0
 13 14  1  0
 32 35  2  0
 14 15  1  0
 18 36  1  1
 15 16  1  0
 16 18  1  0
 10 37  1  1
 17 13  1  0
  5 38  1  1
  5  6  1  0
  6  7  1  1
  7  8  1  0
 14 39  1  6
  8 10  1  0
  3 40  1  0
  9  5  1  0
  3 41  1  0
  2  3  1  0
 17 18  1  0
M  CHG  4  24  -1  33  -1  42   1  43   1
M  END
