 
     RDKit          2D

 49 50  0  2  1  0  0  0  0  0999 V2000
   14.7700  -17.2900    0.0000 N   0  0  0  0  0  0  0  0  0  0  0  0
   15.9600  -16.5900    0.0000 C   0  0  0  0  0  0  0  0  0  0  0  0
   17.1500  -17.2900    0.0000 C   0  0  0  0  0  0  0  0  0  0  0  0
   18.3400  -16.5900    0.0000 C   0  0  0  0  0  0  0  0  0  0  0  0
   19.6000  -17.2900    0.0000 C   0  0  0  0  0  0  0  0  0  0  0  0
   20.7900  -16.5900    0.0000 O   0  0  0  0  0  0  0  0  0  0  0  0
   14.5600  -18.6900    0.0000 C   0  0  0  0  0  0  0  0  0  0  0  0
   13.4400  -16.7300    0.0000 C   0  0  0  0  0  0  0  0  0  0  0  0
   12.5300  -17.7800    0.0000 C   0  0  0  0  0  0  0  0  0  0  0  0
   13.2300  -18.9700    0.0000 C   0  0  0  0  0  0  0  0  0  0  0  0
   12.5300  -20.1600    0.0000 C   0  0  0  0  0  0  0  0  0  0  0  0
   11.1300  -20.1600    0.0000 C   0  0  0  0  0  0  0  0  0  0  0  0
   10.4300  -18.9700    0.0000 C   0  0  0  0  0  0  0  0  0  0  0  0
   11.1300  -17.7800    0.0000 C   0  0  0  0  0  0  0  0  0  0  0  0
   15.9600  -15.1900    0.0000 O   0  0  0  0  0  0  0  0  0  0  0  0
   18.4100  -15.1900    0.0000 C   0  0  0  0  0  0  0  0  0  0  0  0
   19.6000  -18.6900    0.0000 O   0  0  0  0  0  0  0  0  0  0  0  0
   19.6000  -14.4900    0.0000 C   0  0  0  0  0  0  0  0  0  0  0  0
   19.6000  -13.0900    0.0000 C   0  0  0  0  0  0  0  0  0  0  0  0
   20.7900  -12.3900    0.0000 C   0  0  0  0  0  0  0  0  0  0  0  0
   22.0500  -13.0900    0.0000 C   0  0  0  0  0  0  0  0  0  0  0  0
   22.0500  -14.4900    0.0000 C   0  0  0  0  0  0  0  0  0  0  0  0
   20.7900  -15.1900    0.0000 C   0  0  0  0  0  0  0  0  0  0  0  0
   25.3400  -14.4200    0.0000 Ca  0  0  0  0  0 15  0  0  0  0  0  0
   26.6700  -17.2200    0.0000 O   0  0  0  0  0  0  0  0  0  0  0  0
   14.7700  -17.2900    0.0000 N   0  0  0  0  0  0  0  0  0  0  0  0
   15.9600  -16.5900    0.0000 C   0  0  0  0  0  0  0  0  0  0  0  0
   15.9600  -15.1900    0.0000 O   0  0  0  0  0  0  0  0  0  0  0  0
   17.1500  -17.2900    0.0000 C   0  0  0  0  0  0  0  0  0  0  0  0
   18.3400  -16.5900    0.0000 C   0  0  0  0  0  0  0  0  0  0  0  0
   19.6000  -17.2900    0.0000 C   0  0  0  0  0  0  0  0  0  0  0  0
   20.7900  -16.5900    0.0000 O   0  0  0  0  0  0  0  0  0  0  0  0
   19.6000  -18.6900    0.0000 O   0  0  0  0  0  0  0  0  0  0  0  0
   18.4100  -15.1900    0.0000 C   0  0  0  0  0  0  0  0  0  0  0  0
   19.6000  -14.4900    0.0000 C   0  0  0  0  0  0  0  0  0  0  0  0
   19.6000  -13.0900    0.0000 C   0  0  0  0  0  0  0  0  0  0  0  0
   20.7900  -12.3900    0.0000 C   0  0  0  0  0  0  0  0  0  0  0  0
   22.0500  -13.0900    0.0000 C   0  0  0  0  0  0  0  0  0  0  0  0
   22.0500  -14.4900    0.0000 C   0  0  0  0  0  0  0  0  0  0  0  0
   20.7900  -15.1900    0.0000 C   0  0  0  0  0  0  0  0  0  0  0  0
   14.5600  -18.6900    0.0000 C   0  0  0  0  0  0  0  0  0  0  0  0
   13.2300  -18.9700    0.0000 C   0  0  0  0  0  0  0  0  0  0  0  0
   12.5300  -17.7800    0.0000 C   0  0  0  0  0  0  0  0  0  0  0  0
   11.1300  -17.7800    0.0000 C   0  0  0  0  0  0  0  0  0  0  0  0
   10.4300  -18.9700    0.0000 C   0  0  0  0  0  0  0  0  0  0  0  0
   11.1300  -20.1600    0.0000 C   0  0  0  0  0  0  0  0  0  0  0  0
   12.5300  -20.1600    0.0000 C   0  0  0  0  0  0  0  0  0  0  0  0
   13.4400  -16.7300    0.0000 C   0  0  0  0  0  0  0  0  0  0  0  0
   26.6700  -17.2200    0.0000 O   0  0  0  0  0  0  0  0  0  0  0  0
  4  5  1  0
  1  2  1  0
  5  6  1  0
  9 10  1  0
 10 11  1  1
 11 12  1  0
 12 13  1  0
 13 14  1  0
  9 14  1  1
  2 15  2  0
  2  3  1  0
  4 16  1  6
  1  7  1  0
  5 17  2  0
  7 10  1  0
 16 18  1  0
  9  8  1  0
  8  1  1  0
  3  4  1  0
 18 19  2  0
 19 20  1  0
 20 21  2  0
 21 22  1  0
 22 23  2  0
 23 18  1  0
 30 31  1  0
 26 27  1  0
 31 32  1  0
 43 42  1  0
 42 47  1  1
 47 46  1  0
 46 45  1  0
 45 44  1  0
 43 44  1  1
 27 28  2  0
 27 29  1  0
 30 34  1  6
 26 41  1  0
 31 33  2  0
 41 42  1  0
 34 35  1  0
 43 48  1  0
 48 26  1  0
 29 30  1  0
 35 36  2  0
 36 37  1  0
 37 38  2  0
 38 39  1  0
 39 40  2  0
 40 35  1  0
M  CHG  3   6  -1  24   2  32  -1
M  STY  2   1 MUL   2 MUL
M  SLB  2   1   1   2   2
M  SCN  2   1 HT    2 HT 
M  SAL   1 15   1   2   3   4   5   6   7   8   9  10  11  12  13  14  15
M  SAL   1 15  16  17  18  19  20  21  22  23  26  27  28  29  30  31  32
M  SAL   1 15  33  34  35  36  37  38  39  40  41  42  43  44  45  46  47
M  SAL   1  1  48
M  SPA   1 15   1   2  15   3   4   5   6  17  16  18  19  20  21  22  23
M  SPA   1  8   7  10   9  14  13  12  11   8
M  SDI   1  4    9.6600  -20.8600    9.6600  -11.4800
M  SDI   1  4   22.7500  -11.4800   22.7500  -20.8600
M  SMT   1 2
M  SAL   2  2  25  49
M  SPA   2  1  25
M  SDI   2  4   24.4300  -18.2700   24.4300  -16.1700
M  SDI   2  4   27.2300  -16.1700   27.2300  -18.2700
M  SMT   2 2
M  END
