95520-94-8.mol
     RDKit          2D

 12 11  0  0  0  0  0  0  0  0999 V2000
    0.1174   -0.1034    0.0000 N   0  0  0  0  0  0  0  0  0  0  0  0
   -0.6602    0.1723    0.0000 C   0  0  0  0  0  0  0  0  0  0  0  0
    0.0484   -0.9111    0.0000 C   0  0  0  0  0  0  0  0  0  0  0  0
    0.8304    0.3123    0.0000 C   0  0  0  0  0  0  0  0  0  0  0  0
   -1.2784   -0.3619    0.0000 N   0  0  0  0  0  0  0  0  0  0  0  0
   -0.8109    0.9887    0.0000 C   0  0  0  0  0  0  0  0  0  0  0  0
   -0.9919   -1.0404    0.0000 C   0  0  0  0  0  0  0  0  0  0  0  0
    1.5412   -0.0991    0.0000 C   0  0  0  0  0  0  0  0  0  0  0  0
   -2.5622   -0.3532    0.0000 *   0  0  0  0  0  0  0  0  0  0  0  0
    1.5476   -0.9219    0.0000 O   0  0  0  0  0  0  0  0  0  0  0  0
    2.5622   -0.1077    0.0000 *   0  0  0  0  0  0  0  0  0  0  0  0
    0.7227    1.0404    0.0000 Cl  0  0  0  0  0  0  0  0  0  0  0  0
  1  2  2  0
  1  3  1  0
  1  4  1  0
  2  5  1  0
  2  6  1  0
  3  7  2  0
  4  8  1  0
  5  9  1  0
  5  7  1  0
  8 10  1  0
  8 11  1  0
M  CHG  2   1   1  12  -1
V    9 *
V   11 *
M  END
