 
     RDKit          2D

 42 45  0  0  1  0  0  0  0  0999 V2000
   30.8122  -21.1038    0.0000 C   0  0  0  0  0  0  0  0  0  0  0  0
   29.6006  -21.7562    0.0000 C   0  0  0  0  0  0  0  0  0  0  0  0
   30.8122  -19.7057    0.0000 C   0  0  0  0  0  0  0  0  0  0  0  0
   33.2356  -21.1038    0.0000 C   0  0  0  0  0  0  0  0  0  0  0  0
   28.4355  -21.0571    0.0000 C   0  0  0  0  0  0  0  0  0  0  0  0
   29.6006  -23.1543    0.0000 C   0  0  0  0  0  0  0  0  0  0  0  0
   32.0239  -19.0532    0.0000 C   0  0  0  0  0  0  0  0  0  0  0  0
   29.6472  -19.0066    0.0000 C   0  0  0  0  0  0  0  0  0  0  0  0
   30.7656  -18.4940    0.0000 C   0  0  0  0  0  0  0  0  0  0  0  0
   33.2356  -19.7523    0.0000 C   0  0  0  0  0  0  0  0  0  0  0  0
   27.2238  -21.7562    0.0000 C   0  0  0  0  0  0  0  0  0  0  0  0
   28.4355  -19.7057    0.0000 C   0  0  0  0  0  0  0  0  0  0  0  0
   28.3889  -23.8534    0.0000 C   0  0  0  0  0  0  0  0  0  0  0  0
   32.0239  -17.6551    0.0000 C   0  0  0  0  0  0  0  0  0  0  0  0
   33.3288  -18.6804    0.0000 O   0  0  0  0  0  0  0  0  0  0  0  0
   27.2238  -23.1543    0.0000 C   0  0  0  0  0  0  0  0  0  0  0  0
   26.0121  -21.0571    0.0000 C   0  0  0  0  0  0  0  0  0  0  0  0
   27.2238  -20.4514    0.0000 C   0  0  0  0  0  0  0  0  0  0  0  0
   27.2238  -19.0066    0.0000 O   0  0  0  0  0  0  0  0  0  0  0  0
   33.1890  -16.9561    0.0000 C   0  0  0  0  0  0  0  0  0  0  0  0
   30.8122  -16.9561    0.0000 O   0  0  0  0  0  0  0  0  0  0  0  0
   26.0121  -23.8534    0.0000 C   0  0  0  0  0  0  0  0  0  0  0  0
   24.8471  -21.7562    0.0000 C   0  0  0  0  0  0  0  0  0  0  0  0
   34.4007  -17.6551    0.0000 O   0  0  0  0  0  0  0  0  0  0  0  0
   24.8471  -23.1543    0.0000 C   0  0  0  0  0  0  0  0  0  0  0  0
   35.5657  -16.9561    0.0000 C   0  0  0  0  0  0  0  0  0  0  0  0
   23.6353  -23.8534    0.0000 O   0  0  0  0  0  0  0  0  0  0  0  0
   36.7775  -17.6551    0.0000 C   0  0  0  0  0  0  0  0  0  0  0  0
   35.5657  -15.5579    0.0000 O   0  0  0  0  0  0  0  0  0  0  0  0
   37.9891  -16.9561    0.0000 C   0  0  0  0  0  0  0  0  0  0  0  0
   39.2008  -17.6551    0.0000 C   0  0  0  0  0  0  0  0  0  0  0  0
   40.3658  -16.9561    0.0000 C   0  0  0  0  0  0  0  0  0  0  0  0
   37.9891  -15.5554    0.0000 C   0  0  0  0  0  0  0  0  0  0  0  0
   41.5583  -17.6644    0.0000 C   0  0  0  0  0  0  0  0  0  0  0  0
   42.7708  -16.9643    0.0000 C   0  0  0  0  0  0  0  0  0  0  0  0
   43.9834  -17.6644    0.0000 C   0  0  0  0  0  0  0  0  0  0  0  0
   45.1960  -16.9643    0.0000 C   0  0  0  0  0  0  0  0  0  0  0  0
   46.4086  -17.6644    0.0000 C   0  0  0  0  0  0  0  0  0  0  0  0
   42.7708  -15.5641    0.0000 C   0  0  0  0  0  0  0  0  0  0  0  0
   47.6246  -16.9624    0.0000 C   0  0  0  0  0  0  0  0  0  0  0  0
   48.8395  -17.6638    0.0000 C   0  0  0  0  0  0  0  0  0  0  0  0
   47.6246  -15.5641    0.0000 C   0  0  0  0  0  0  0  0  0  0  0  0
  3  7  1  0
  3  8  1  0
  3  9  1  1
  4 10  1  0
  5 11  1  0
  5 12  1  1
  6 13  1  0
  7 14  1  0
  7 15  1  6
 11 16  1  0
 11 17  1  0
 11 18  1  1
 12 19  1  1
 14 20  1  0
 14 21  2  0
 16 22  2  0
 17 23  2  0
 20 24  1  0
 22 25  1  0
 24 26  1  0
 25 27  2  0
 26 28  1  0
 26 29  2  0
  7 10  1  0
  8 12  1  0
 13 16  1  0
 23 25  1  0
  1  2  1  0
 28 30  2  0
  1  3  1  0
 30 31  1  0
  1  4  1  1
 31 32  1  0
  2  5  1  0
  2  6  1  6
 30 33  1  0
 32 34  1  0
 34 35  2  0
 35 36  1  0
 36 37  1  0
 37 38  1  0
 35 39  1  0
 38 40  2  0
 40 41  1  0
 40 42  1  0
M  END
