 
     RDKit          2D

 41 42  0  0  1  0  0  0  0  0999 V2000
   28.4025  -14.8702    0.0000 C   0  0  0  0  0  0  0  0  0  0  0  0
   28.4025  -16.2751    0.0000 C   0  0  0  0  0  0  0  0  0  0  0  0
   29.8073  -16.2751    0.0000 N   0  0  0  0  0  0  0  0  0  0  0  0
   29.8073  -14.8702    0.0000 C   0  0  0  0  0  0  0  0  0  0  0  0
   31.1418  -16.6964    0.0000 C   0  0  0  0  0  0  0  0  0  0  0  0
   31.9845  -15.5725    0.0000 C   0  0  0  0  0  0  0  0  0  0  0  0
   31.1418  -14.4487    0.0000 S   0  0  0  0  0  0  0  0  0  0  0  0
   32.9680  -16.5559    0.0000 C   0  0  0  0  0  0  0  0  0  0  0  0
   32.9680  -14.5892    0.0000 C   0  0  0  0  0  0  0  0  0  0  0  0
   31.6334  -18.0309    0.0000 C   0  0  0  0  0  0  0  0  0  0  0  0
   33.0381  -18.0309    0.0000 O   0  0  0  0  0  0  0  0  0  0  0  0
   30.7905  -19.1546    0.0000 O   0  0  0  0  0  0  0  0  0  0  0  0
   27.2084  -14.1678    0.0000 N   0  0  0  0  0  0  0  0  0  0  0  0
   26.0144  -14.8702    0.0000 C   0  0  0  0  0  0  0  0  0  0  0  0
   27.2084  -16.9774    0.0000 O   0  0  0  0  0  0  0  0  0  0  0  0
   26.0144  -16.2751    0.0000 O   0  0  0  0  0  0  0  0  0  0  0  0
   24.7949  -14.1727    0.0000 C   0  0  0  0  0  0  0  0  0  0  0  0
   23.6026  -14.8679    0.0000 C   0  0  0  0  0  0  0  0  0  0  0  0
   24.7949  -12.7715    0.0000 N   0  0  0  0  0  0  0  0  0  0  0  0
   22.3890  -14.1673    0.0000 C   0  0  0  0  0  0  0  0  0  0  0  0
   21.1757  -14.8679    0.0000 C   0  0  0  0  0  0  0  0  0  0  0  0
   21.1757  -16.2692    0.0000 C   0  0  0  0  0  0  0  0  0  0  0  0
   22.3890  -16.9698    0.0000 C   0  0  0  0  0  0  0  0  0  0  0  0
   23.6026  -16.2692    0.0000 C   0  0  0  0  0  0  0  0  0  0  0  0
   34.5800  -18.0600    0.0000 Na  0  0  0  0  0 15  0  0  0  0  0  0
   24.3502  -14.6993    0.0000 C   0  0  0  0  0  0  0  0  0  0  0  0
   24.3502  -16.1001    0.0000 C   0  0  0  0  0  0  0  0  0  0  0  0
   25.7512  -16.1001    0.0000 N   0  0  0  0  0  0  0  0  0  0  0  0
   25.7512  -14.6993    0.0000 C   0  0  0  0  0  0  0  0  0  0  0  0
   27.0833  -16.5330    0.0000 C   0  0  0  0  0  0  0  0  0  0  0  0
   27.9067  -15.3997    0.0000 C   0  0  0  0  0  0  0  0  0  0  0  0
   27.0833  -14.2664    0.0000 S   0  0  0  0  0  0  0  0  0  0  0  0
   28.8971  -16.3902    0.0000 C   0  0  0  0  0  0  0  0  0  0  0  0
   28.8971  -14.4092    0.0000 C   0  0  0  0  0  0  0  0  0  0  0  0
   27.5123  -17.8534    0.0000 C   0  0  0  0  0  0  0  0  0  0  0  0
   28.9132  -17.8534    0.0000 O   0  0  0  0  0  0  0  0  0  0  0  0
   26.6865  -18.9901    0.0000 O   0  0  0  0  0  0  0  0  0  0  0  0
   26.7215  -12.9161    0.0000 O   0  0  0  0  0  0  0  0  0  0  0  0
   28.0719  -13.2779    0.0000 O   0  0  0  0  0  0  0  0  0  0  0  0
   23.1378  -16.8001    0.0000 O   0  0  0  0  0  0  0  0  0  0  0  0
   30.8265  -17.9709    0.0000 Na  0  0  0  0  0 15  0  0  0  0  0  0
  1  2  1  0
  2  3  1  0
  3  4  1  0
  1  4  1  0
  3  5  1  0
  5  6  1  0
  6  7  1  0
  4  7  1  1
  6  8  1  0
  6  9  1  0
  5 10  1  6
 10 11  1  0
 10 12  2  0
  1 13  1  1
 13 14  1  0
  2 15  2  0
 14 16  2  0
 14 17  1  0
 17 18  1  0
 17 19  1  1
 18 20  2  0
 20 21  1  0
 21 22  2  0
 22 23  1  0
 23 24  2  0
 18 24  1  0
 26 27  1  0
 27 28  1  0
 28 29  1  0
 29 26  1  1
 28 30  1  0
 30 31  1  0
 31 32  1  0
 29 32  1  0
 31 33  1  0
 31 34  1  0
 30 35  1  6
 35 36  1  0
 35 37  2  0
 32 38  2  0
 32 39  2  0
 27 40  2  0
M  CHG  4  11  -1  25   1  36  -1  41   1
M  END
