 
     RDKit          2D

 22 24  0  0  1  0  0  0  0  0999 V2000
   38.5928  -17.3129    0.0000 Cl  0  0  0  0  0  0  0  0  0  0  0  0
   30.1000  -18.9700    0.0000 O   0  0  0  0  0  0  0  0  0  0  0  0
   28.9800  -18.3400    0.0000 C   0  0  0  0  0  0  0  0  0  0  0  0
   28.0000  -16.8700    0.0000 C   0  0  0  0  0  0  0  0  0  0  0  0
   28.0000  -17.8500    0.0000 C   0  0  0  0  0  0  0  0  0  0  0  0
   26.5300  -16.8700    0.0000 C   0  0  0  0  0  0  0  0  0  0  0  0
   26.4600  -17.8500    0.0000 C   0  0  0  0  0  0  0  0  0  0  0  0
   25.6900  -15.8900    0.0000 N   0  0  0  0  0  0  0  0  0  0  0  0
   25.5500  -17.4300    0.0000 C   0  0  0  0  0  0  0  0  0  0  0  0
   24.9900  -18.4800    0.0000 C   0  0  0  0  0  0  0  0  0  0  0  0
   25.6900  -14.5600    0.0000 C   0  0  0  0  0  0  0  0  0  0  0  0
   31.5000  -18.9700    0.0000 C   0  0  0  0  0  0  0  0  0  0  0  0
   32.2000  -17.7100    0.0000 C   0  0  0  0  0  0  0  0  0  0  0  0
   32.2000  -20.2300    0.0000 O   0  0  0  0  0  0  0  0  0  0  0  0
   33.6000  -17.7100    0.0000 C   0  0  0  0  0  0  0  0  0  0  0  0
   33.8800  -16.3100    0.0000 C   0  0  0  0  0  0  0  0  0  0  0  0
   32.6900  -15.6100    0.0000 N   0  0  0  0  0  0  0  0  0  0  0  0
   31.6400  -16.5200    0.0000 C   0  0  0  0  0  0  0  0  0  0  0  0
   34.6500  -18.6200    0.0000 C   0  0  0  0  0  0  0  0  0  0  0  0
   35.9800  -18.2000    0.0000 C   0  0  0  0  0  0  0  0  0  0  0  0
   36.2600  -16.8700    0.0000 C   0  0  0  0  0  0  0  0  0  0  0  0
   35.2800  -15.8900    0.0000 C   0  0  0  0  0  0  0  0  0  0  0  0
  3  5  1  0
  6  4  1  1
  7  5  1  6
  6  8  1  0
  6  9  1  0
  7 10  1  0
  7  8  1  0
  9 10  1  0
  3  2  1  6
  3  4  1  0
  8 11  1  0
  2 12  1  0
 12 13  1  0
 12 14  2  0
 13 15  1  0
 15 16  2  0
 16 17  1  0
 17 18  1  0
 13 18  2  0
 15 19  1  0
 19 20  2  0
 20 21  1  0
 21 22  2  0
 16 22  1  0
M  END
