 
     RDKit          2D

 48 50  0  1  1  0  0  0  0  0999 V2000
   30.5665  -18.3867    0.0000 S   0  0  0  0  0  0  0  0  0  0  0  0
   30.5665  -16.9867    0.0000 O   0  0  0  0  0  0  0  0  0  0  0  0
   30.5665  -19.7867    0.0000 O   0  0  0  0  0  0  0  0  0  0  0  0
   31.9665  -18.3867    0.0000 O   0  0  0  0  0  0  0  0  0  0  0  0
   29.1666  -18.3867    0.0000 O   0  0  0  0  0  0  0  0  0  0  0  0
   36.2599  -18.3400    0.0000 O   0  0  0  0  0  0  0  0  0  0  0  0
   15.7738  -18.5308    0.0000 C   0  0  0  0  0  0  0  0  0  0  0  0
   16.1019  -17.3591    0.0000 C   0  0  0  0  0  0  0  0  0  0  0  0
   16.9455  -18.2496    0.0000 C   0  0  0  0  0  0  0  0  0  0  0  0
   17.2736  -17.0779    0.0000 C   0  0  0  0  0  0  0  0  0  0  0  0
   16.0082  -15.7656    0.0000 N   0  0  0  0  0  0  0  0  0  0  0  0
   18.8202  -18.2496    0.0000 C   0  0  0  0  0  0  0  0  0  0  0  0
   18.5390  -17.0779    0.0000 C   0  0  0  0  0  0  0  0  0  0  0  0
   19.8513  -18.8120    0.0000 C   0  0  0  0  0  0  0  0  0  0  0  0
   20.9293  -19.7025    0.0000 O   0  0  0  0  0  0  0  0  0  0  0  0
   22.1479  -19.7025    0.0000 C   0  0  0  0  0  0  0  0  0  0  0  0
   22.7572  -18.6245    0.0000 C   0  0  0  0  0  0  0  0  0  0  0  0
   22.7572  -20.8273    0.0000 O   0  0  0  0  0  0  0  0  0  0  0  0
   23.9758  -18.6245    0.0000 C   0  0  0  0  0  0  0  0  0  0  0  0
   22.1479  -17.5934    0.0000 C   0  0  0  0  0  0  0  0  0  0  0  0
   22.7572  -16.5155    0.0000 O   0  0  0  0  0  0  0  0  0  0  0  0
   24.6820  -19.8482    0.0000 C   0  0  0  0  0  0  0  0  0  0  0  0
   26.0820  -19.8485    0.0000 C   0  0  0  0  0  0  0  0  0  0  0  0
   26.7822  -18.6362    0.0000 C   0  0  0  0  0  0  0  0  0  0  0  0
   26.0761  -17.4125    0.0000 C   0  0  0  0  0  0  0  0  0  0  0  0
   24.6761  -17.4122    0.0000 C   0  0  0  0  0  0  0  0  0  0  0  0
   15.2591  -14.5814    0.0000 C   0  0  0  0  0  0  0  0  0  0  0  0
   15.7738  -18.5308    0.0000 C   0  0  0  0  0  0  0  0  0  0  0  0
   16.1019  -17.3591    0.0000 C   0  0  0  0  0  0  0  0  0  0  0  0
   17.2736  -17.0779    0.0000 C   0  0  0  0  0  0  0  0  0  0  0  0
   18.5390  -17.0779    0.0000 C   0  0  0  0  0  0  0  0  0  0  0  0
   19.8513  -18.8120    0.0000 C   0  0  0  0  0  0  0  0  0  0  0  0
   18.8202  -18.2496    0.0000 C   0  0  0  0  0  0  0  0  0  0  0  0
   16.9455  -18.2496    0.0000 C   0  0  0  0  0  0  0  0  0  0  0  0
   16.0082  -15.7656    0.0000 N   0  0  0  0  0  0  0  0  0  0  0  0
   15.2591  -14.5814    0.0000 C   0  0  0  0  0  0  0  0  0  0  0  0
   20.9293  -19.7025    0.0000 O   0  0  0  0  0  0  0  0  0  0  0  0
   22.1479  -19.7025    0.0000 C   0  0  0  0  0  0  0  0  0  0  0  0
   22.7572  -18.6245    0.0000 C   0  0  0  0  0  0  0  0  0  0  0  0
   23.9758  -18.6245    0.0000 C   0  0  0  0  0  0  0  0  0  0  0  0
   24.6820  -19.8482    0.0000 C   0  0  0  0  0  0  0  0  0  0  0  0
   26.0820  -19.8485    0.0000 C   0  0  0  0  0  0  0  0  0  0  0  0
   26.7822  -18.6362    0.0000 C   0  0  0  0  0  0  0  0  0  0  0  0
   26.0761  -17.4125    0.0000 C   0  0  0  0  0  0  0  0  0  0  0  0
   24.6761  -17.4122    0.0000 C   0  0  0  0  0  0  0  0  0  0  0  0
   22.1479  -17.5934    0.0000 C   0  0  0  0  0  0  0  0  0  0  0  0
   22.7572  -16.5155    0.0000 O   0  0  0  0  0  0  0  0  0  0  0  0
   22.7572  -20.8273    0.0000 O   0  0  0  0  0  0  0  0  0  0  0  0
  1  2  2  0
  1  3  2  0
  1  4  1  0
  1  5  1  0
  7  8  1  0
  9  7  1  6
 10  8  1  1
  9 11  1  0
  9 12  1  0
 10 13  1  0
 12 14  1  0
 14 15  1  6
 15 16  1  0
 16 17  1  0
 16 18  2  0
 17 19  1  0
 17 20  1  0
 20 21  1  0
 10 11  1  0
 13 14  1  0
 19 22  2  0
 22 23  1  0
 23 24  2  0
 24 25  1  0
 25 26  2  0
 19 26  1  0
 11 27  1  0
 28 29  1  0
 34 28  1  6
 30 29  1  1
 34 35  1  0
 34 33  1  0
 30 31  1  0
 33 32  1  0
 32 37  1  6
 37 38  1  0
 38 39  1  0
 38 48  2  0
 39 40  1  0
 39 46  1  0
 46 47  1  0
 30 35  1  0
 31 32  1  0
 40 41  2  0
 41 42  1  0
 42 43  2  0
 43 44  1  0
 44 45  2  0
 40 45  1  0
 35 36  1  0
M  STY  1   1 MUL
M  SLB  1   1   1
M  SCN  1   1 HT 
M  SAL   1 15   7   8   9  10  11  12  13  14  15  16  17  18  19  20  21
M  SAL   1 15  22  23  24  25  26  27  28  29  30  31  32  33  34  35  36
M  SAL   1 12  37  38  39  40  41  42  43  44  45  46  47  48
M  SPA   1 15   7   8  10  13  14  12   9  11  27  15  16  17  19  22  23
M  SPA   1  6  24  25  26  20  21  18
M  SDI   1  4   13.2300  -21.3500   13.2300  -13.7200
M  SDI   1  4   27.0900  -13.7200   27.0900  -21.3500
M  SMT   1 2
M  END
