 
     RDKit          2D

 37 40  0  0  1  0  0  0  0  0999 V2000
   15.6561  -19.4690    0.0000 C   0  0  0  0  0  0  0  0  0  0  0  0
   15.6561  -20.8194    0.0000 C   0  0  0  0  0  0  0  0  0  0  0  0
   16.8256  -21.4948    0.0000 C   0  0  0  0  0  0  0  0  0  0  0  0
   17.9952  -20.8194    0.0000 C   0  0  0  0  0  0  0  0  0  0  0  0
   17.9952  -19.4690    0.0000 C   0  0  0  0  0  0  0  0  0  0  0  0
   16.8256  -18.7937    0.0000 C   0  0  0  0  0  0  0  0  0  0  0  0
   19.1647  -21.4948    0.0000 C   0  0  0  0  0  0  0  0  0  0  0  0
   20.3344  -20.8194    0.0000 C   0  0  0  0  0  0  0  0  0  0  0  0
   20.3344  -19.4690    0.0000 C   0  0  0  0  0  0  0  0  0  0  0  0
   19.1647  -18.7937    0.0000 C   0  0  0  0  0  0  0  0  0  0  0  0
   21.5039  -18.7937    0.0000 C   0  0  0  0  0  0  0  0  0  0  0  0
   21.5039  -17.4432    0.0000 C   0  0  0  0  0  0  0  0  0  0  0  0
   20.3344  -16.7679    0.0000 C   0  0  0  0  0  0  0  0  0  0  0  0
   19.1647  -17.4432    0.0000 C   0  0  0  0  0  0  0  0  0  0  0  0
   23.8430  -18.7937    0.0000 C   0  0  0  0  0  0  0  0  0  0  0  0
   23.8430  -17.4432    0.0000 C   0  0  0  0  0  0  0  0  0  0  0  0
   22.6735  -16.7679    0.0000 C   0  0  0  0  0  0  0  0  0  0  0  0
   25.2197  -17.4517    0.0000 C   0  0  0  0  0  0  0  0  0  0  0  0
   22.6737  -15.0019    0.0000 C   0  0  0  0  0  0  0  0  0  0  0  0
   21.4866  -16.0984    0.0000 C   0  0  0  0  0  0  0  0  0  0  0  0
   17.9476  -16.7404    0.0000 O   0  0  0  0  0  0  0  0  0  0  0  0
   17.9831  -18.0546    0.0000 C   0  0  0  0  0  0  0  0  0  0  0  0
   14.4453  -21.5185    0.0000 O   0  0  0  0  0  0  0  0  0  0  0  0
   19.1493  -20.2006    0.0000 F   0  0  0  0  0  0  0  0  0  0  0  0
   23.9078  -16.0487    0.0000 O   0  0  0  0  0  0  0  0  0  0  0  0
   23.9029  -14.2923    0.0000 O   0  0  0  0  0  0  0  0  0  0  0  0
   21.4828  -14.2991    0.0000 C   0  0  0  0  0  0  0  0  0  0  0  0
   20.2708  -14.9989    0.0000 O   0  0  0  0  0  0  0  0  0  0  0  0
   19.0588  -14.2991    0.0000 C   0  0  0  0  0  0  0  0  0  0  0  0
   17.8467  -14.9989    0.0000 C   0  0  0  0  0  0  0  0  0  0  0  0
   19.0588  -12.8996    0.0000 O   0  0  0  0  0  0  0  0  0  0  0  0
   16.6320  -14.2975    0.0000 C   0  0  0  0  0  0  0  0  0  0  0  0
   26.0073  -16.0487    0.0000 C   0  0  0  0  0  0  0  0  0  0  0  0
   26.7103  -17.2661    0.0000 O   0  0  0  0  0  0  0  0  0  0  0  0
   26.6970  -14.8538    0.0000 C   0  0  0  0  0  0  0  0  0  0  0  0
   28.0922  -14.8536    0.0000 C   0  0  0  0  0  0  0  0  0  0  0  0
   28.7947  -13.6363    0.0000 C   0  0  0  0  0  0  0  0  0  0  0  0
  1  2  1  0
  2  3  1  0
  3  4  2  0
  4  5  1  0
  5  6  1  0
  1  6  2  0
  4  7  1  0
  7  8  1  0
  9  8  1  6
  9 10  1  0
  5 10  1  0
  9 11  1  0
 11 12  1  0
 12 13  1  0
 13 14  1  0
 10 14  1  0
 11 15  1  1
 15 16  1  0
 16 17  1  0
 12 17  1  0
 16 18  1  1
 17 19  1  0
 12 20  1  1
 14 21  1  1
  5 22  1  1
  2 23  2  0
 10 24  1  6
 17 25  1  6
 19 26  2  0
 19 27  1  0
 27 28  1  0
 28 29  1  0
 29 30  1  0
 29 31  2  0
 30 32  1  0
 25 33  1  0
 33 34  2  0
 33 35  1  0
 35 36  1  0
 36 37  1  0
M  END
