 
     RDKit          2D

 22 23  0  0  1  0  0  0  0  0999 V2000
   26.2738  -16.4308    0.0000 C   0  0  0  0  0  0  0  0  0  0  0  0
   26.6019  -15.2591    0.0000 C   0  0  0  0  0  0  0  0  0  0  0  0
   27.4455  -16.1496    0.0000 C   0  0  0  0  0  0  0  0  0  0  0  0
   27.7736  -14.9779    0.0000 C   0  0  0  0  0  0  0  0  0  0  0  0
   26.5082  -13.6656    0.0000 N   0  0  0  0  0  0  0  0  0  0  0  0
   29.3202  -16.1496    0.0000 C   0  0  0  0  0  0  0  0  0  0  0  0
   29.0390  -14.9779    0.0000 C   0  0  0  0  0  0  0  0  0  0  0  0
   30.3513  -16.7120    0.0000 C   0  0  0  0  0  0  0  0  0  0  0  0
   31.4293  -17.6025    0.0000 O   0  0  0  0  0  0  0  0  0  0  0  0
   32.6479  -17.6025    0.0000 C   0  0  0  0  0  0  0  0  0  0  0  0
   33.2572  -16.5245    0.0000 C   0  0  0  0  0  0  0  0  0  0  0  0
   33.2572  -18.7273    0.0000 O   0  0  0  0  0  0  0  0  0  0  0  0
   34.4758  -16.5245    0.0000 C   0  0  0  0  0  0  0  0  0  0  0  0
   32.6479  -15.4934    0.0000 O   0  0  0  0  0  0  0  0  0  0  0  0
   35.1820  -17.7482    0.0000 C   0  0  0  0  0  0  0  0  0  0  0  0
   36.5820  -17.7485    0.0000 C   0  0  0  0  0  0  0  0  0  0  0  0
   37.2822  -16.5362    0.0000 C   0  0  0  0  0  0  0  0  0  0  0  0
   36.5761  -15.3125    0.0000 C   0  0  0  0  0  0  0  0  0  0  0  0
   35.1761  -15.3122    0.0000 C   0  0  0  0  0  0  0  0  0  0  0  0
   25.7591  -12.4814    0.0000 C   0  0  0  0  0  0  0  0  0  0  0  0
   25.2789  -14.2783    0.0000 C   0  0  0  0  0  0  0  0  0  0  0  0
   30.3100  -12.6700    0.0000 Br  0  0  0  0  0  0  0  0  0  0  0  0
  1  2  1  0
  3  1  1  6
  4  2  1  1
  3  5  1  0
  3  6  1  0
  4  7  1  0
  6  8  1  0
  8  9  1  6
  9 10  1  0
 10 11  1  0
 10 12  2  0
 11 13  1  0
 11 14  1  0
  4  5  1  0
  7  8  1  0
 13 15  2  0
 15 16  1  0
 16 17  2  0
 17 18  1  0
 18 19  2  0
 13 19  1  0
  5 20  1  0
  5 21  1  0
M  CHG  2   5   1  22  -1
M  END
