 
 
 
 25 24  0  0  1  0  0  0  0  0999 V2000
   15.1900  -15.3300    0.0000 C   0  0  0  0  0  0  0  0  0  0  0  0
   14.0000  -14.6300    0.0000 C   0  0  0  0  0  0  0  0  0  0  0  0
   15.1900  -16.7300    0.0000 C   0  0  0  0  0  0  0  0  0  0  0  0
   16.3800  -14.6300    0.0000 C   0  0  0  0  0  0  0  0  0  0  0  0
   12.7400  -15.3300    0.0000 C   0  0  0  0  0  0  0  0  0  0  0  0
   14.0000  -17.4300    0.0000 C   0  0  0  0  0  0  0  0  0  0  0  0
   17.6400  -15.3300    0.0000 C   0  0  3  0  0  0  0  0  0  0  0  0
   12.7400  -16.7300    0.0000 C   0  0  0  0  0  0  0  0  0  0  0  0
   18.8300  -14.6300    0.0000 N   0  0  0  0  0  0  0  0  0  0  0  0
   17.6400  -16.7300    0.0000 C   0  0  0  0  0  0  0  0  0  0  0  0
   24.0800  -15.8900    0.0000 S   0  0  0  0  0  0  0  0  0  0  0  0
   24.0800  -14.4900    0.0000 O   0  0  0  0  0  0  0  0  0  0  0  0
   24.0800  -17.2900    0.0000 O   0  0  0  0  0  0  0  0  0  0  0  0
   25.4800  -15.8900    0.0000 O   0  0  0  0  0  0  0  0  0  0  0  0
   22.6800  -15.8900    0.0000 O   0  0  0  0  0  0  0  0  0  0  0  0
   15.1900  -15.3300    0.0000 C   0  0  0  0  0  0  0  0  0  0  0  0
   14.0000  -14.6300    0.0000 C   0  0  0  0  0  0  0  0  0  0  0  0
   12.7400  -15.3300    0.0000 C   0  0  0  0  0  0  0  0  0  0  0  0
   12.7400  -16.7300    0.0000 C   0  0  0  0  0  0  0  0  0  0  0  0
   14.0000  -17.4300    0.0000 C   0  0  0  0  0  0  0  0  0  0  0  0
   15.1900  -16.7300    0.0000 C   0  0  0  0  0  0  0  0  0  0  0  0
   16.3800  -14.6300    0.0000 C   0  0  0  0  0  0  0  0  0  0  0  0
   17.6400  -15.3300    0.0000 C   0  0  3  0  0  0  0  0  0  0  0  0
   18.8300  -14.6300    0.0000 N   0  0  0  0  0  0  0  0  0  0  0  0
   17.6400  -16.7300    0.0000 C   0  0  0  0  0  0  0  0  0  0  0  0
 11 12  2  0     0  0
 11 13  2  0     0  0
 11 14  1  0     0  0
 11 15  1  0     0  0
  1  2  2  0     0  0
  1  3  1  0     0  0
  1  4  1  0     0  0
  2  5  1  0     0  0
  3  6  2  0     0  0
  4  7  1  0     0  0
  5  8  2  0     0  0
  7  9  1  0     0  0
  7 10  1  1     0  0
  6  8  1  0     0  0
 16 17  2  0     0  0
 16 21  1  0     0  0
 16 22  1  0     0  0
 17 18  1  0     0  0
 21 20  2  0     0  0
 22 23  1  0     0  0
 18 19  2  0     0  0
 23 24  1  0     0  0
 23 25  1  1     0  0
 20 19  1  0     0  0
M  STY  1   1 MUL
M  SLB  1   1   1
M  SCN  1   1 HT 
M  SAL   1 15   1   2   3   4   5   6   7   8   9  10  16  17  18  19  20
M  SAL   1  5  21  22  23  24  25
M  SPA   1 10   1   2   5   8   6   3   4   7   9  10
M  SDI   1  4   12.1100  -18.4100   12.1100  -13.5100
M  SDI   1  4   20.3000  -13.5100   20.3000  -18.4100
M  SMT   1 2
M  END
