 
     RDKit          2D

 26 25  0  1  1  0  0  0  0  0999 V2000
   38.4301  -16.1700    0.0000 Br  0  0  0  0  0  0  0  0  0  0  0  0
   38.8500  -18.6900    0.0000 O   0  0  0  0  0  0  0  0  0  0  0  0
   24.3600  -17.8500    0.0000 C   0  0  0  0  0  0  0  0  0  0  0  0
   24.6400  -16.6600    0.0000 C   0  0  0  0  0  0  0  0  0  0  0  0
   25.4800  -17.5700    0.0000 C   0  0  0  0  0  0  0  0  0  0  0  0
   23.3100  -16.4500    0.0000 O   0  0  0  0  0  0  0  0  0  0  0  0
   25.8300  -16.3800    0.0000 C   0  0  0  0  0  0  0  0  0  0  0  0
   24.5700  -15.0500    0.0000 N   0  0  0  0  0  0  0  0  0  0  0  0
   27.3700  -17.5700    0.0000 C   0  0  0  0  0  0  0  0  0  0  0  0
   27.0900  -16.3800    0.0000 C   0  0  0  0  0  0  0  0  0  0  0  0
   24.5700  -13.7200    0.0000 C   0  0  0  0  0  0  0  0  0  0  0  0
   28.3500  -18.0600    0.0000 C   0  0  0  0  0  0  0  0  0  0  0  0
   29.4000  -18.9700    0.0000 O   0  0  0  0  0  0  0  0  0  0  0  0
   30.8000  -18.9700    0.0000 C   0  0  0  0  0  0  0  0  0  0  0  0
   31.5000  -20.1600    0.0000 O   0  0  0  0  0  0  0  0  0  0  0  0
   31.5000  -17.7800    0.0000 C   0  0  0  0  0  0  0  0  0  0  0  0
   32.9000  -17.7800    0.0000 C   0  0  0  0  0  0  0  0  0  0  0  0
   33.6000  -18.9700    0.0000 C   0  0  0  0  0  0  0  0  0  0  0  0
   35.0000  -18.9700    0.0000 C   0  0  0  0  0  0  0  0  0  0  0  0
   35.7000  -17.7800    0.0000 C   0  0  0  0  0  0  0  0  0  0  0  0
   35.0000  -16.5900    0.0000 C   0  0  0  0  0  0  0  0  0  0  0  0
   33.6000  -16.5900    0.0000 C   0  0  0  0  0  0  0  0  0  0  0  0
   30.8000  -16.5200    0.0000 C   0  0  0  0  0  0  0  0  0  0  0  0
   31.5000  -15.3300    0.0000 O   0  0  0  0  0  0  0  0  0  0  0  0
   38.8500  -18.6900    0.0000 O   0  0  0  0  0  0  0  0  0  0  0  0
   38.8500  -18.6900    0.0000 O   0  0  0  0  0  0  0  0  0  0  0  0
  3  4  1  0
  3  5  1  0
  3  6  1  0
  4  7  1  0
  5  8  1  0
  5  9  1  6
  7 10  1  1
  8 11  1  0
  9 12  1  0
 12 13  1  6
  4  6  1  0
  7  8  1  0
 10 12  1  0
 13 14  1  0
 14 15  2  0
 14 16  1  0
 16 17  1  0
 17 18  2  0
 18 19  1  0
 19 20  2  0
 20 21  1  0
 21 22  2  0
 17 22  1  0
 16 23  1  6
 23 24  1  0
M  STY  1   1 MUL
M  SLB  1   1   1
M  SCN  1   1 HT 
M  SAL   1  3   2  25  26
M  SPA   1  1   2
M  SDI   1  4   36.8200  -19.8100   36.8200  -17.6400
M  SDI   1  4   39.4100  -17.6400   39.4100  -19.8100
M  SMT   1 3
M  END
