 
     RDKit          2D

 33 32  0  0  1  0  0  0  0  0999 V2000
   22.9600  -19.2500    0.0000 C   0  0  0  0  0  0  0  0  0  0  0  0
   22.9600  -20.6500    0.0000 C   0  0  0  0  0  0  0  0  0  0  0  0
   24.1500  -18.5500    0.0000 C   0  0  0  0  0  0  0  0  0  0  0  0
   21.7000  -18.5500    0.0000 O   0  0  0  0  0  0  0  0  0  0  0  0
   24.1500  -21.3500    0.0000 C   0  0  0  0  0  0  0  0  0  0  0  0
   21.7000  -21.3500    0.0000 O   0  0  0  0  0  0  0  0  0  0  0  0
   25.3400  -19.2500    0.0000 C   0  0  0  0  0  0  0  0  0  0  0  0
   25.3400  -20.6500    0.0000 C   0  0  0  0  0  0  0  0  0  0  0  0
   26.6000  -18.6200    0.0000 C   0  0  0  0  0  0  0  0  0  0  0  0
   27.7900  -19.2500    0.0000 C   0  0  0  0  0  0  0  0  0  0  0  0
   28.9800  -18.6200    0.0000 C   0  0  0  0  0  0  0  0  0  0  0  0
   27.7900  -20.6500    0.0000 N   0  0  0  0  0  0  0  0  0  0  0  0
   30.2400  -19.2500    0.0000 O   0  0  0  0  0  0  0  0  0  0  0  0
   28.9800  -17.2200    0.0000 O   0  0  0  0  0  0  0  0  0  0  0  0
   23.9725  -16.2472    0.0000 C   0  0  0  0  0  0  0  0  0  0  0  0
   23.9725  -17.6495    0.0000 C   0  0  0  0  0  0  0  0  0  0  0  0
   25.1899  -18.3506    0.0000 C   0  0  0  0  0  0  0  0  0  0  0  0
   26.4001  -17.6495    0.0000 C   0  0  0  0  0  0  0  0  0  0  0  0
   26.4001  -16.2472    0.0000 C   0  0  0  0  0  0  0  0  0  0  0  0
   25.1899  -15.5461    0.0000 C   0  0  0  0  0  0  0  0  0  0  0  0
   25.1916  -14.1437    0.0000 O   0  0  0  0  0  0  0  0  0  0  0  0
   22.7584  -15.5454    0.0000 O   0  0  0  0  0  0  0  0  0  0  0  0
   22.7584  -18.3513    0.0000 O   0  0  0  0  0  0  0  0  0  0  0  0
   27.6057  -15.5532    0.0000 C   0  0  0  0  0  0  0  0  0  0  0  0
   28.8168  -16.2543    0.0000 N   0  0  0  0  0  0  0  0  0  0  0  0
   30.0278  -15.5602    0.0000 N   0  0  0  0  0  0  0  0  0  0  0  0
   31.2389  -16.2613    0.0000 C   0  0  0  0  0  0  0  0  0  0  0  0
   32.4500  -15.5673    0.0000 C   0  0  0  0  0  0  0  0  0  0  0  0
   33.6610  -16.2685    0.0000 C   0  0  0  0  0  0  0  0  0  0  0  0
   34.8721  -15.5745    0.0000 O   0  0  0  0  0  0  0  0  0  0  0  0
   31.2359  -17.6636    0.0000 O   0  0  0  0  0  0  0  0  0  0  0  0
   32.4530  -14.1649    0.0000 N   0  0  0  0  0  0  0  0  0  0  0  0
   34.9641  -18.5135    0.0000 Cl  0  0  0  0  0  0  0  0  0  0  0  0
  1  2  2  0
  1  3  1  0
  1  4  1  0
  2  5  1  0
  2  6  1  0
  3  7  2  0
  5  8  2  0
  7  9  1  0
  9 10  1  0
 10 11  1  0
 10 12  1  1
 11 13  1  0
 11 14  2  0
  7  8  1  0
 16 23  1  0
 16 17  2  0
 19 24  1  0
 17 18  1  0
 24 25  1  0
 18 19  2  0
 25 26  1  0
 19 20  1  0
 26 27  1  0
 20 15  2  0
 27 28  1  0
 28 29  1  0
 20 21  1  0
 29 30  1  0
 27 31  2  0
 15 22  1  0
 28 32  1  0
 15 16  1  0
M  END
