 
     RDKit          2D

 56 59  0  0  1  0  0  0  0  0999 V2000
   28.4025  -14.8702    0.0000 C   0  0  0  0  0  0  0  0  0  0  0  0
   28.4025  -16.2751    0.0000 C   0  0  0  0  0  0  0  0  0  0  0  0
   29.8073  -16.2751    0.0000 N   0  0  0  0  0  0  0  0  0  0  0  0
   29.8073  -14.8702    0.0000 C   0  0  0  0  0  0  0  0  0  0  0  0
   31.1418  -16.6964    0.0000 C   0  0  0  0  0  0  0  0  0  0  0  0
   31.9845  -15.5725    0.0000 C   0  0  0  0  0  0  0  0  0  0  0  0
   31.1418  -14.4487    0.0000 S   0  0  0  0  0  0  0  0  0  0  0  0
   32.9680  -16.5559    0.0000 C   0  0  0  0  0  0  0  0  0  0  0  0
   32.9680  -14.5892    0.0000 C   0  0  0  0  0  0  0  0  0  0  0  0
   31.6334  -18.0309    0.0000 C   0  0  0  0  0  0  0  0  0  0  0  0
   33.0381  -18.0309    0.0000 O   0  0  0  0  0  0  0  0  0  0  0  0
   30.7905  -19.1546    0.0000 O   0  0  0  0  0  0  0  0  0  0  0  0
   27.2084  -14.1678    0.0000 N   0  0  0  0  0  0  0  0  0  0  0  0
   26.0144  -14.8702    0.0000 C   0  0  0  0  0  0  0  0  0  0  0  0
   27.2084  -16.9774    0.0000 O   0  0  0  0  0  0  0  0  0  0  0  0
   26.0144  -16.2751    0.0000 O   0  0  0  0  0  0  0  0  0  0  0  0
   24.7949  -14.1727    0.0000 C   0  0  0  0  0  0  0  0  0  0  0  0
   23.6026  -14.8679    0.0000 C   0  0  0  0  0  0  0  0  0  0  0  0
   24.7949  -12.7715    0.0000 N   0  0  0  0  0  0  0  0  0  0  0  0
   22.3890  -14.1673    0.0000 C   0  0  0  0  0  0  0  0  0  0  0  0
   21.1757  -14.8679    0.0000 C   0  0  0  0  0  0  0  0  0  0  0  0
   21.1757  -16.2692    0.0000 C   0  0  0  0  0  0  0  0  0  0  0  0
   22.3890  -16.9698    0.0000 C   0  0  0  0  0  0  0  0  0  0  0  0
   23.6026  -16.2692    0.0000 C   0  0  0  0  0  0  0  0  0  0  0  0
   12.1800  -22.4700    0.0000 C   0  0  0  0  0  0  0  0  0  0  0  0
   12.1800  -23.8700    0.0000 C   0  0  0  0  0  0  0  0  0  0  0  0
   13.5800  -23.8700    0.0000 N   0  0  0  0  0  0  0  0  0  0  0  0
   13.5800  -22.4700    0.0000 C   0  0  0  0  0  0  0  0  0  0  0  0
   14.9100  -24.2900    0.0000 C   0  0  0  0  0  0  0  0  0  0  0  0
   15.7500  -23.1700    0.0000 C   0  0  0  0  0  0  0  0  0  0  0  0
   14.9100  -22.0500    0.0000 S   0  0  0  0  0  0  0  0  0  0  0  0
   16.7300  -24.1500    0.0000 C   0  0  0  0  0  0  0  0  0  0  0  0
   16.7300  -22.1900    0.0000 C   0  0  0  0  0  0  0  0  0  0  0  0
   15.4000  -25.6900    0.0000 C   0  0  0  0  0  0  0  0  0  0  0  0
   16.8000  -25.6900    0.0000 O   0  0  0  0  0  0  0  0  0  0  0  0
   14.5600  -26.8100    0.0000 O   0  0  0  0  0  0  0  0  0  0  0  0
   10.9900  -21.7700    0.0000 N   0  0  0  0  0  0  0  0  0  0  0  0
    9.8000  -22.4700    0.0000 C   0  0  0  0  0  0  0  0  0  0  0  0
   10.9900  -24.5700    0.0000 O   0  0  0  0  0  0  0  0  0  0  0  0
    9.8000  -23.8700    0.0000 O   0  0  0  0  0  0  0  0  0  0  0  0
    8.5400  -21.7700    0.0000 C   0  0  0  0  0  0  0  0  0  0  0  0
    8.5400  -20.3700    0.0000 C   0  0  0  0  0  0  0  0  0  0  0  0
    7.2085  -19.9374    0.0000 O   0  0  0  0  0  0  0  0  0  0  0  0
    6.3856  -21.0700    0.0000 N   0  0  0  0  0  0  0  0  0  0  0  0
    7.2085  -22.2026    0.0000 C   0  0  0  0  0  0  0  0  0  0  0  0
    7.2085  -24.8626    0.0000 C   0  0  0  0  0  0  0  0  0  0  0  0
    6.0027  -25.5588    0.0000 C   0  0  0  0  0  0  0  0  0  0  0  0
    6.0026  -26.9588    0.0000 C   0  0  0  0  0  0  0  0  0  0  0  0
    7.2150  -27.6588    0.0000 C   0  0  0  0  0  0  0  0  0  0  0  0
    8.4209  -26.9627    0.0000 C   0  0  0  0  0  0  0  0  0  0  0  0
    8.4209  -25.5627    0.0000 C   0  0  0  0  0  0  0  0  0  0  0  0
    9.6726  -19.5471    0.0000 C   0  0  0  0  0  0  0  0  0  0  0  0
    4.7996  -24.8640    0.0000 Cl  0  0  0  0  0  0  0  0  0  0  0  0
    9.6230  -24.8685    0.0000 Cl  0  0  0  0  0  0  0  0  0  0  0  0
   18.4100  -25.7600    0.0000 Na  0  0  0  0  0 15  0  0  0  0  0  0
   18.6900  -27.5800    0.0000 O   0  0  0  0  0  0  0  0  0  0  0  0
  1  2  1  0
  2  3  1  0
  3  4  1  0
  1  4  1  0
  3  5  1  0
  5  6  1  0
  6  7  1  0
  4  7  1  1
  6  8  1  0
  6  9  1  0
  5 10  1  6
 10 11  1  0
 10 12  2  0
  1 13  1  1
 13 14  1  0
  2 15  2  0
 14 16  2  0
 14 17  1  0
 17 18  1  0
 17 19  1  1
 18 20  2  0
 20 21  1  0
 21 22  2  0
 22 23  1  0
 23 24  2  0
 18 24  1  0
 25 26  1  0
 26 27  1  0
 27 28  1  0
 25 28  1  0
 27 29  1  0
 29 30  1  0
 30 31  1  0
 28 31  1  1
 30 32  1  0
 30 33  1  0
 29 34  1  6
 34 35  1  0
 34 36  2  0
 25 37  1  1
 37 38  1  0
 26 39  2  0
 38 40  2  0
 38 41  1  0
 41 42  2  0
 42 43  1  0
 43 44  1  0
 44 45  2  0
 41 45  1  0
 45 46  1  0
 46 47  2  0
 47 48  1  0
 48 49  2  0
 49 50  1  0
 50 51  2  0
 46 51  1  0
 42 52  1  0
 47 53  1  0
 51 54  1  0
M  CHG  2  35  -1  55   1
M  END
