 
     RDKit          2D

 45 45  0  1  1  0  0  0  0  0999 V2000
   16.4762   -9.1832    0.0000 Cl  0  0  0  0  0  0  0  0  0  0  0  0
   17.1806  -11.8405    0.0000 O   0  0  0  0  0  0  0  0  0  0  0  0
    7.4494  -10.6994    0.0000 C   0  0  0  0  0  0  0  0  0  0  0  0
    7.4494   -9.3754    0.0000 C   0  0  0  0  0  0  0  0  0  0  0  0
    8.6340  -11.3961    0.0000 C   0  0  0  0  0  0  0  0  0  0  0  0
    6.3345  -11.3265    0.0000 C   0  0  0  0  0  0  0  0  0  0  0  0
    8.6340  -10.0723    0.0000 C   0  0  0  0  0  0  0  0  0  0  0  0
    6.3345   -8.7483    0.0000 C   0  0  0  0  0  0  0  0  0  0  0  0
    8.6340   -8.7483    0.0000 C   0  0  0  0  0  0  0  0  0  0  0  0
    9.7489  -10.6994    0.0000 C   0  0  0  0  0  0  0  0  0  0  0  0
    8.6340  -12.6504    0.0000 C   0  0  0  0  0  0  0  0  0  0  0  0
    5.0106  -10.0025    0.0000 O   0  0  0  0  0  0  0  0  0  0  0  0
    6.3345  -12.6504    0.0000 C   0  0  0  0  0  0  0  0  0  0  0  0
   10.8637  -10.0723    0.0000 C   0  0  0  0  0  0  0  0  0  0  0  0
    6.3345   -7.4244    0.0000 C   0  0  0  0  0  0  0  0  0  0  0  0
    9.7489   -9.4451    0.0000 C   0  0  0  0  0  0  0  0  0  0  0  0
    8.6340   -7.4244    0.0000 C   0  0  0  0  0  0  0  0  0  0  0  0
   10.8637  -11.3961    0.0000 N   0  0  0  0  0  0  0  0  0  0  0  0
    7.4494  -13.3472    0.0000 C   0  0  0  0  0  0  0  0  0  0  0  0
    5.2197  -13.3472    0.0000 O   0  0  0  0  0  0  0  0  0  0  0  0
    7.5191   -6.7973    0.0000 C   0  0  0  0  0  0  0  0  0  0  0  0
    5.2197   -6.7973    0.0000 O   0  0  0  0  0  0  0  0  0  0  0  0
    4.0351   -7.4244    0.0000 C   0  0  0  0  0  0  0  0  0  0  0  0
    9.8882  -12.3020    0.0000 O   0  0  0  0  0  0  0  0  0  0  0  0
   12.2626  -11.3961    0.0000 C   0  0  0  0  0  0  0  0  0  0  0  0
   17.1806  -11.8405    0.0000 O   0  0  0  0  0  0  0  0  0  0  0  0
   17.1806  -11.8405    0.0000 O   0  0  0  0  0  0  0  0  0  0  0  0
   20.9060  -14.3728    0.0000 C   0  0  0  0  0  0  0  0  0  0  0  0
   20.9060  -15.7729    0.0000 C   0  0  0  0  0  0  0  0  0  0  0  0
   22.1184  -16.4729    0.0000 C   0  0  0  0  0  0  0  0  0  0  0  0
   23.3307  -15.7729    0.0000 N   0  0  0  0  0  0  0  0  0  0  0  0
   23.3307  -14.3728    0.0000 C   0  0  0  0  0  0  0  0  0  0  0  0
   22.1184  -13.6729    0.0000 C   0  0  0  0  0  0  0  0  0  0  0  0
   19.6936  -13.6729    0.0000 C   0  0  0  0  0  0  0  0  0  0  0  0
   18.4812  -14.3728    0.0000 C   0  0  0  0  0  0  0  0  0  0  0  0
   18.4812  -15.7729    0.0000 C   0  0  0  0  0  0  0  0  0  0  0  0
   19.6936  -16.4729    0.0000 C   0  0  0  0  0  0  0  0  0  0  0  0
   17.1498  -13.9402    0.0000 O   0  0  0  0  0  0  0  0  0  0  0  0
   16.3269  -15.0728    0.0000 C   0  0  0  0  0  0  0  0  0  0  0  0
   17.1498  -16.2055    0.0000 O   0  0  0  0  0  0  0  0  0  0  0  0
   24.5445  -16.4737    0.0000 C   0  0  0  0  0  0  0  0  0  0  0  0
   19.6936  -17.8728    0.0000 O   0  0  0  0  0  0  0  0  0  0  0  0
   20.9054  -18.5724    0.0000 C   0  0  0  0  0  0  0  0  0  0  0  0
   27.9067  -15.9600    0.0000 Cl  0  0  0  0  0  0  0  0  0  0  0  0
   30.8934  -15.9601    0.0000 O   0  0  0  0  0  0  0  0  0  0  0  0
  3  4  1  0
  3  5  1  0
  3  6  1  0
  3  7  1  1
  4  8  2  0
  4  9  1  0
  5 10  1  0
  5 11  1  0
  6 12  1  6
  6 13  1  0
  7 14  1  0
  8 15  1  0
  9 16  1  0
  9 17  2  0
 10 18  1  0
 11 19  1  0
 13 20  2  0
 15 21  2  0
 15 22  1  0
 22 23  1  0
  8 12  1  0
 10 16  1  1
 13 19  1  0
 14 18  1  0
 17 21  1  0
  5 24  1  1
 18 25  1  0
 28 29  2  0
 29 30  1  0
 30 31  1  0
 31 32  1  0
 32 33  1  0
 28 33  1  0
 28 34  1  0
 34 35  2  0
 35 36  1  0
 36 37  2  0
 29 37  1  0
 35 38  1  0
 38 39  1  0
 39 40  1  0
 36 40  1  0
 31 41  1  0
 37 42  1  0
 42 43  1  0
M  STY  1   1 MUL
M  SLB  1   1   1
M  SCN  1   1 HT 
M  SAL   1  3   2  26  27
M  SPA   1  1   2
M  SDI   1  4   14.9100  -12.8100   14.9100  -10.8500
M  SDI   1  4   17.7100  -10.8500   17.7100  -12.8100
M  SMT   1 3
M  END
