 
     RDKit          2D

 53 54  0  0  1  0  0  0  0  0999 V2000
   23.9038  -16.2708    0.0000 Cl  0  0  0  0  0  0  0  0  0  0  0  0
   14.7259  -19.2286    0.0000 C   0  0  0  0  0  0  0  0  0  0  0  0
   15.4238  -20.4397    0.0000 C   0  0  0  0  0  0  0  0  0  0  0  0
   16.8216  -20.4408    0.0000 C   0  0  0  0  0  0  0  0  0  0  0  0
   17.5215  -19.2309    0.0000 C   0  0  0  0  0  0  0  0  0  0  0  0
   16.8236  -18.0198    0.0000 C   0  0  0  0  0  0  0  0  0  0  0  0
   15.4258  -18.0187    0.0000 C   0  0  0  0  0  0  0  0  0  0  0  0
   18.9192  -19.2320    0.0000 C   0  0  0  0  0  0  0  0  0  0  0  0
   19.6191  -18.0220    0.0000 C   0  0  0  0  0  0  0  0  0  0  0  0
   18.9211  -16.8109    0.0000 C   0  0  0  0  0  0  0  0  0  0  0  0
   17.5234  -16.8098    0.0000 C   0  0  0  0  0  0  0  0  0  0  0  0
   19.6171  -20.4430    0.0000 C   0  0  0  0  0  0  0  0  0  0  0  0
   21.0149  -20.4441    0.0000 C   0  0  0  0  0  0  0  0  0  0  0  0
   21.7148  -19.2342    0.0000 C   0  0  0  0  0  0  0  0  0  0  0  0
   21.0169  -18.0231    0.0000 C   0  0  0  0  0  0  0  0  0  0  0  0
   16.8395  -15.6226    0.0000 O   0  0  0  0  0  0  0  0  0  0  0  0
   15.4474  -15.6215    0.0000 C   0  0  0  0  0  0  0  0  0  0  0  0
   14.7386  -16.8466    0.0000 O   0  0  0  0  0  0  0  0  0  0  0  0
   14.7583  -14.4256    0.0000 C   0  0  0  0  0  0  0  0  0  0  0  0
   13.3509  -14.4243    0.0000 C   0  0  0  0  0  0  0  0  0  0  0  0
   18.2223  -15.5994    0.0000 C   0  0  0  0  0  0  0  0  0  0  0  0
   19.6403  -15.5998    0.0000 C   0  0  0  0  0  0  0  0  0  0  0  0
   17.5168  -14.3775    0.0000 C   0  0  0  0  0  0  0  0  0  0  0  0
   18.2193  -13.1601    0.0000 N   0  0  0  0  0  0  0  0  0  0  0  0
   19.6402  -13.1603    0.0000 C   0  0  0  0  0  0  0  0  0  0  0  0
   17.5113  -11.9347    0.0000 C   0  0  0  0  0  0  0  0  0  0  0  0
   20.2981  -15.8105    0.0000 C   0  0  0  0  0  0  0  0  0  0  0  0
   21.5226  -16.5029    0.0000 C   0  0  0  0  0  0  0  0  0  0  0  0
   19.0928  -16.5029    0.0000 C   0  0  0  0  0  0  0  0  0  0  0  0
   20.2981  -14.6227    0.0000 C   0  0  0  0  0  0  0  0  0  0  0  0
   21.5226  -17.9133    0.0000 C   0  0  0  0  0  0  0  0  0  0  0  0
   22.7278  -15.8040    0.0000 O   0  0  0  0  0  0  0  0  0  0  0  0
   19.0928  -17.9133    0.0000 C   0  0  0  0  0  0  0  0  0  0  0  0
   21.5033  -13.9240    0.0000 O   0  0  0  0  0  0  0  0  0  0  0  0
   19.0863  -13.9304    0.0000 O   0  0  0  0  0  0  0  0  0  0  0  0
   20.2981  -18.6250    0.0000 C   0  0  0  0  0  0  0  0  0  0  0  0
   23.9396  -16.4964    0.0000 C   0  0  0  0  0  0  0  0  0  0  0  0
   25.1450  -15.7977    0.0000 C   0  0  0  0  0  0  0  0  0  0  0  0
   23.9396  -17.8942    0.0000 O   0  0  0  0  0  0  0  0  0  0  0  0
   26.6863  -18.2225    0.0000 C   0  0  0  0  0  0  0  0  0  0  0  0
   26.6863  -19.6480    0.0000 C   0  0  0  0  0  0  0  0  0  0  0  0
   27.8899  -17.5154    0.0000 C   0  0  0  0  0  0  0  0  0  0  0  0
   25.3833  -17.7901    0.0000 N   0  0  0  0  0  0  0  0  0  0  0  0
   27.8899  -20.3317    0.0000 N   0  0  0  0  0  0  0  0  0  0  0  0
   25.3833  -20.0805    0.0000 N   0  0  0  0  0  0  0  0  0  0  0  0
   29.1110  -18.2517    0.0000 N   0  0  0  0  0  0  0  0  0  0  0  0
   27.8899  -16.1365    0.0000 O   0  0  0  0  0  0  0  0  0  0  0  0
   24.5654  -18.9469    0.0000 C   0  0  0  0  0  0  0  0  0  0  0  0
   24.9509  -16.4637    0.0000 C   0  0  0  0  0  0  0  0  0  0  0  0
   29.1110  -19.5955    0.0000 C   0  0  0  0  0  0  0  0  0  0  0  0
   27.8899  -21.7632    0.0000 C   0  0  0  0  0  0  0  0  0  0  0  0
   30.3322  -17.5681    0.0000 C   0  0  0  0  0  0  0  0  0  0  0  0
   30.3613  -20.2967    0.0000 O   0  0  0  0  0  0  0  0  0  0  0  0
  2  3  2  0
  3  4  1  0
  4  5  2  0
  5  6  1  0
  6  7  2  0
  2  7  1  0
  8  9  1  0
  9 10  1  0
 11 10  1  6
 11  6  1  0
  8 12  2  0
 12 13  1  0
 13 14  2  0
 14 15  1  0
  9 15  2  0
 11 16  1  0
 16 17  1  0
 17 18  2  0
 17 19  1  0
 19 20  1  0
 11 21  1  0
 21 22  1  1
 21 23  1  0
 23 24  1  0
 24 25  1  0
 24 26  1  0
 27 28  2  0
 27 29  1  0
 27 30  1  0
 28 31  1  0
 28 32  1  0
 29 33  2  0
 30 34  1  0
 30 35  2  0
 31 36  2  0
 32 37  1  0
 37 38  1  0
 37 39  2  0
 33 36  1  0
 40 41  2  0
 40 42  1  0
 40 43  1  0
 41 44  1  0
 41 45  1  0
 42 46  1  0
 42 47  2  0
 43 48  1  0
 43 49  1  0
 44 50  1  0
 44 51  1  0
 46 52  1  0
 50 53  2  0
 45 48  2  0
 46 50  1  0
M  END
