83619-90-3.mol
     RDKit          2D

  6  4  0  0  0  0  0  0  0  0999 V2000
   -0.2062   -1.7457    0.0000 Fe  0  0  0  0  0 15  0  0  0  0  0  0
    0.0000    1.0313    0.0000 S   0  0  0  0  0  0  0  0  0  0  0  0
    0.7145    1.4438    0.0000 O   0  0  0  0  0  0  0  0  0  0  0  0
   -0.7145    0.6188    0.0000 O   0  0  0  0  0  0  0  0  0  0  0  0
   -0.4125    1.7457    0.0000 O   0  0  0  0  0  0  0  0  0  0  0  0
    0.4125    0.3168    0.0000 O   0  0  0  0  0  0  0  0  0  0  0  0
  2  3  1  0
  2  4  1  0
  2  5  2  0
  2  6  2  0
V    1 0
V    2 1
V    3 2
V    4 3
V    5 4
V    6 5
M  END
