 
     RDKit          2D

 32 34  0  0  1  0  0  0  0  0999 V2000
   17.7128  -16.5491    0.0000 C   0  0  0  0  0  0  0  0  0  0  0  0
   17.7128  -17.9064    0.0000 C   0  0  0  0  0  0  0  0  0  0  0  0
   18.8882  -18.5850    0.0000 C   0  0  0  0  0  0  0  0  0  0  0  0
   20.0636  -17.9064    0.0000 C   0  0  0  0  0  0  0  0  0  0  0  0
   20.0636  -16.5491    0.0000 C   0  0  0  0  0  0  0  0  0  0  0  0
   18.8882  -15.8705    0.0000 C   0  0  0  0  0  0  0  0  0  0  0  0
   21.2391  -18.5850    0.0000 C   0  0  0  0  0  0  0  0  0  0  0  0
   22.4144  -17.9064    0.0000 C   0  0  0  0  0  0  0  0  0  0  0  0
   22.4144  -16.5491    0.0000 C   0  0  0  0  0  0  0  0  0  0  0  0
   21.2391  -15.8705    0.0000 C   0  0  0  0  0  0  0  0  0  0  0  0
   23.5899  -15.8705    0.0000 C   0  0  0  0  0  0  0  0  0  0  0  0
   23.5899  -14.5132    0.0000 C   0  0  0  0  0  0  0  0  0  0  0  0
   22.4144  -13.8346    0.0000 C   0  0  0  0  0  0  0  0  0  0  0  0
   21.2391  -14.5132    0.0000 C   0  0  0  0  0  0  0  0  0  0  0  0
   25.9407  -15.8705    0.0000 C   0  0  0  0  0  0  0  0  0  0  0  0
   25.9407  -14.5132    0.0000 C   0  0  0  0  0  0  0  0  0  0  0  0
   24.7653  -13.8346    0.0000 C   0  0  0  0  0  0  0  0  0  0  0  0
   20.0636  -15.1918    0.0000 C   0  0  0  0  0  0  0  0  0  0  0  0
   20.0656  -13.8358    0.0000 O   0  0  0  0  0  0  0  0  0  0  0  0
   23.5899  -13.1560    0.0000 C   0  0  0  0  0  0  0  0  0  0  0  0
   27.1036  -13.8417    0.0000 C   0  0  0  0  0  0  0  0  0  0  0  0
   24.7653  -12.1381    0.0000 C   0  0  0  0  0  0  0  0  0  0  0  0
   21.2391  -17.2277    0.0000 F   0  0  0  0  0  0  0  0  0  0  0  0
   25.9407  -12.9465    0.0000 O   0  0  0  0  0  0  0  0  0  0  0  0
   16.5375  -18.5850    0.0000 O   0  0  0  0  0  0  0  0  0  0  0  0
   25.9447  -11.4572    0.0000 O   0  0  0  0  0  0  0  0  0  0  0  0
   23.5938  -11.4617    0.0000 C   0  0  0  0  0  0  0  0  0  0  0  0
   22.4368  -12.1299    0.0000 O   0  0  0  0  0  0  0  0  0  0  0  0
   21.2411  -11.4393    0.0000 C   0  0  0  0  0  0  0  0  0  0  0  0
   20.0186  -12.1452    0.0000 C   0  0  0  0  0  0  0  0  0  0  0  0
   21.2419  -10.0104    0.0000 O   0  0  0  0  0  0  0  0  0  0  0  0
   28.9100  -16.8700    0.0000 O   0  0  0  0  0  0  0  0  0  0  0  0
  1  2  1  0
  2  3  1  0
  3  4  2  0
  4  5  1  0
  5  6  1  0
  1  6  2  0
  4  7  1  0
  7  8  1  0
  9  8  1  6
  9 10  1  0
  5 10  1  0
  9 11  1  0
 11 12  1  0
 12 13  1  0
 13 14  1  0
 10 14  1  0
 11 15  1  1
 15 16  1  0
 16 17  1  0
 12 17  1  0
  5 18  1  1
 14 19  1  1
 12 20  1  1
 16 21  1  6
 17 22  1  0
 10 23  1  6
 17 24  1  6
  2 25  2  0
 22 26  2  0
 22 27  1  0
 27 28  1  0
 28 29  1  0
 29 30  1  0
 29 31  2  0
M  END
