 
     RDKit          2D

256254  0  0  1  0  0  0  0  0999 V2000
   29.2845  -16.8454    0.0000 C   0  0  0  0  0  0  0  0  0  0  0  0
   29.2784  -18.2246    0.0000 C   0  0  0  0  0  0  0  0  0  0  0  0
   30.4784  -16.1589    0.0000 C   0  0  0  0  0  0  0  0  0  0  0  0
   28.0785  -16.1650    0.0000 C   0  0  0  0  0  0  0  0  0  0  0  0
   29.2723  -15.4970    0.0000 C   0  0  0  0  0  0  0  0  0  0  0  0
   28.0848  -18.9235    0.0000 C   0  0  0  0  0  0  0  0  0  0  0  0
   31.6349  -18.1731    0.0000 C   0  0  0  0  0  0  0  0  0  0  0  0
   31.6410  -16.8330    0.0000 C   0  0  0  0  0  0  0  0  0  0  0  0
   30.4845  -14.8105    0.0000 C   0  0  0  0  0  0  0  0  0  0  0  0
   31.7443  -15.7389    0.0000 O   0  0  0  0  0  0  0  0  0  0  0  0
   26.9219  -16.7898    0.0000 C   0  0  0  0  0  0  0  0  0  0  0  0
   26.9406  -18.0576    0.0000 C   0  0  0  0  0  0  0  0  0  0  0  0
   28.0909  -20.2966    0.0000 C   0  0  0  0  0  0  0  0  0  0  0  0
   31.7895  -14.0498    0.0000 C   0  0  0  0  0  0  0  0  0  0  0  0
   29.3216  -14.1364    0.0000 O   0  0  0  0  0  0  0  0  0  0  0  0
   25.7160  -16.1960    0.0000 O   0  0  0  0  0  0  0  0  0  0  0  0
   25.7160  -18.9298    0.0000 C   0  0  0  0  0  0  0  0  0  0  0  0
   26.9035  -20.9706    0.0000 C   0  0  0  0  0  0  0  0  0  0  0  0
   33.1255  -14.8786    0.0000 O   0  0  0  0  0  0  0  0  0  0  0  0
   25.7160  -20.2903    0.0000 C   0  0  0  0  0  0  0  0  0  0  0  0
   24.5346  -18.2555    0.0000 C   0  0  0  0  0  0  0  0  0  0  0  0
   25.7407  -17.5380    0.0000 C   0  0  0  0  0  0  0  0  0  0  0  0
   34.3501  -14.3158    0.0000 C   0  0  0  0  0  0  0  0  0  0  0  0
   24.5346  -20.9769    0.0000 C   0  0  0  0  0  0  0  0  0  0  0  0
   23.3719  -18.9298    0.0000 C   0  0  0  0  0  0  0  0  0  0  0  0
   35.5006  -14.7920    0.0000 C   0  0  0  0  0  0  0  0  0  0  0  0
   34.3748  -12.9056    0.0000 O   0  0  0  0  0  0  0  0  0  0  0  0
   23.3719  -20.2903    0.0000 C   0  0  0  0  0  0  0  0  0  0  0  0
   22.2029  -20.9583    0.0000 O   0  0  0  0  0  0  0  0  0  0  0  0
   43.7884  -14.0613    0.0000 S   0  0  0  0  0  0  0  0  0  0  0  0
   43.7884  -15.4667    0.0000 O   0  0  0  0  0  0  0  0  0  0  0  0
   45.1939  -14.0613    0.0000 O   0  0  0  0  0  0  0  0  0  0  0  0
   43.7884  -12.6557    0.0000 O   0  0  0  0  0  0  0  0  0  0  0  0
   42.3830  -14.0613    0.0000 O   0  0  0  0  0  0  0  0  0  0  0  0
   29.0933  -19.7038    0.0000 C   0  0  0  0  0  0  0  0  0  0  0  0
   30.3008  -20.4028    0.0000 C   0  0  0  0  0  0  0  0  0  0  0  0
   27.8786  -20.4028    0.0000 O   0  0  0  0  0  0  0  0  0  0  0  0
   25.4494  -11.7267    0.0000 C   0  0  0  0  0  0  0  0  0  0  0  0
   25.4494  -13.1319    0.0000 N   0  0  0  0  0  0  0  0  0  0  0  0
   27.8786  -11.7267    0.0000 N   0  0  0  0  0  0  0  0  0  0  0  0
   26.6711  -11.0275    0.0000 C   0  0  0  0  0  0  0  0  0  0  0  0
   30.3008  -11.7267    0.0000 C   0  0  0  0  0  0  0  0  0  0  0  0
   29.0933  -11.0275    0.0000 C   0  0  0  0  0  0  0  0  0  0  0  0
   32.7300  -11.7267    0.0000 C   0  0  0  0  0  0  0  0  0  0  0  0
   31.5153  -11.0275    0.0000 N   0  0  0  0  0  0  0  0  0  0  0  0
   24.2419  -13.8239    0.0000 C   0  0  0  0  0  0  0  0  0  0  0  0
   24.2419  -15.2222    0.0000 C   0  0  0  0  0  0  0  0  0  0  0  0
   25.4494  -15.9281    0.0000 C   0  0  0  0  0  0  0  0  0  0  0  0
   25.4494  -17.3264    0.0000 C   0  0  0  0  0  0  0  0  0  0  0  0
   26.6711  -18.0184    0.0000 N   0  0  0  0  0  0  0  0  0  0  0  0
   27.8786  -17.3264    0.0000 C   0  0  0  0  0  0  0  0  0  0  0  0
   29.0933  -18.0184    0.0000 C   0  0  0  0  0  0  0  0  0  0  0  0
   30.3008  -17.3264    0.0000 N   0  0  0  0  0  0  0  0  0  0  0  0
   31.5153  -18.0184    0.0000 C   0  0  0  0  0  0  0  0  0  0  0  0
   32.7300  -17.3264    0.0000 C   0  0  0  0  0  0  0  0  0  0  0  0
   26.6711   -9.6294    0.0000 O   0  0  0  0  0  0  0  0  0  0  0  0
   35.1522  -11.7267    0.0000 C   0  0  0  0  0  0  0  0  0  0  0  0
   33.9376  -11.0275    0.0000 C   0  0  0  0  0  0  0  0  0  0  0  0
   29.0933   -9.3494    0.0000 C   0  0  0  0  0  0  0  0  0  0  0  0
   32.7300  -13.1319    0.0000 C   0  0  0  0  0  0  0  0  0  0  0  0
   36.3666  -11.0275    0.0000 C   0  0  0  0  0  0  0  0  0  0  0  0
   35.1522  -13.1319    0.0000 C   0  0  0  0  0  0  0  0  0  0  0  0
   31.5153  -13.8239    0.0000 O   0  0  0  0  0  0  0  0  0  0  0  0
   30.3008   -8.6503    0.0000 C   0  0  0  0  0  0  0  0  0  0  0  0
   31.5648   -9.3494    0.0000 C   0  0  0  0  0  0  0  0  0  0  0  0
   30.3008   -7.2098    0.0000 C   0  0  0  0  0  0  0  0  0  0  0  0
   30.3008  -13.1319    0.0000 O   0  0  0  0  0  0  0  0  0  0  0  0
   24.2419  -11.0275    0.0000 C   0  0  0  0  0  0  0  0  0  0  0  0
   23.0274  -13.1319    0.0000 O   0  0  0  0  0  0  0  0  0  0  0  0
   23.0274  -15.9281    0.0000 N   0  0  0  0  0  0  0  0  0  0  0  0
   27.8786  -15.9281    0.0000 O   0  0  0  0  0  0  0  0  0  0  0  0
   31.5153  -19.4238    0.0000 O   0  0  0  0  0  0  0  0  0  0  0  0
   32.7300  -15.9281    0.0000 N   0  0  0  0  0  0  0  0  0  0  0  0
   34.1281  -15.9281    0.0000 C   0  0  0  0  0  0  0  0  0  0  0  0
   33.9376  -13.8239    0.0000 N   0  0  0  0  0  0  0  0  0  0  0  0
   34.8271  -14.7560    0.0000 C   0  0  0  0  0  0  0  0  0  0  0  0
   36.2253  -14.7560    0.0000 C   0  0  0  0  0  0  0  0  0  0  0  0
   33.9376  -18.0184    0.0000 C   0  0  0  0  0  0  0  0  0  0  0  0
   33.9376  -19.4238    0.0000 C   0  0  0  0  0  0  0  0  0  0  0  0
   35.1522  -20.1228    0.0000 N   0  0  0  0  0  0  0  0  0  0  0  0
   24.2419   -9.6294    0.0000 C   0  0  0  0  0  0  0  0  0  0  0  0
   23.0274   -8.9303    0.0000 N   0  0  0  0  0  0  0  0  0  0  0  0
   21.8198  -15.2222    0.0000 C   0  0  0  0  0  0  0  0  0  0  0  0
   20.6053  -15.9281    0.0000 C   0  0  0  0  0  0  0  0  0  0  0  0
   19.3978  -15.2222    0.0000 N   0  0  0  0  0  0  0  0  0  0  0  0
   18.1831  -15.9281    0.0000 C   0  0  0  0  0  0  0  0  0  0  0  0
   16.9615  -15.2222    0.0000 C   0  0  0  0  0  0  0  0  0  0  0  0
   15.7541  -15.9281    0.0000 N   0  0  0  0  0  0  0  0  0  0  0  0
   14.5394  -15.2222    0.0000 C   0  0  0  0  0  0  0  0  0  0  0  0
   13.3319  -15.9281    0.0000 C   0  0  0  0  0  0  0  0  0  0  0  0
   12.1172  -15.2222    0.0000 N   0  0  0  0  0  0  0  0  0  0  0  0
   10.9098  -15.9281    0.0000 C   0  0  0  0  0  0  0  0  0  0  0  0
    9.6951  -15.2222    0.0000 C   0  0  0  0  0  0  0  0  0  0  0  0
    8.4876  -15.9281    0.0000 C   0  0  0  0  0  0  0  0  0  0  0  0
    7.2660  -15.2222    0.0000 C   0  0  0  0  0  0  0  0  0  0  0  0
    6.0515  -15.9281    0.0000 C   0  0  0  0  0  0  0  0  0  0  0  0
    4.8439  -15.2222    0.0000 C   0  0  0  0  0  0  0  0  0  0  0  0
    3.6292  -15.9281    0.0000 C   0  0  0  0  0  0  0  0  0  0  0  0
    2.4217  -15.2222    0.0000 R   0  0  0  0  0  0  0  0  0  0  0  0
   21.8198  -13.8239    0.0000 O   0  0  0  0  0  0  0  0  0  0  0  0
   20.6053  -17.3264    0.0000 C   0  0  0  0  0  0  0  0  0  0  0  0
   18.1831  -17.3264    0.0000 O   0  0  0  0  0  0  0  0  0  0  0  0
   16.9615  -13.4739    0.0000 C   0  0  0  0  0  0  0  0  0  0  0  0
   15.7541  -12.7819    0.0000 C   0  0  0  0  0  0  0  0  0  0  0  0
   18.1831  -12.7819    0.0000 O   0  0  0  0  0  0  0  0  0  0  0  0
   14.5394  -13.8239    0.0000 O   0  0  0  0  0  0  0  0  0  0  0  0
   13.3319  -17.3264    0.0000 C   0  0  0  0  0  0  0  0  0  0  0  0
   10.9098  -17.3264    0.0000 O   0  0  0  0  0  0  0  0  0  0  0  0
    4.8439  -13.8239    0.0000 C   0  0  0  0  0  0  0  0  0  0  0  0
   19.3978  -18.0184    0.0000 C   0  0  0  0  0  0  0  0  0  0  0  0
   19.3978  -19.4238    0.0000 N   0  0  0  0  0  0  0  0  0  0  0  0
   12.1172  -18.0184    0.0000 C   0  0  0  0  0  0  0  0  0  0  0  0
   12.1172  -19.4238    0.0000 N   0  0  0  0  0  0  0  0  0  0  0  0
   34.8271  -17.1357    0.0000 O   0  0  0  0  0  0  0  0  0  0  0  0
   36.9404  -15.9936    0.0000 C   0  0  0  0  0  0  0  0  0  0  0  0
   38.3596  -15.9936    0.0000 N   0  0  0  0  0  0  0  0  0  0  0  0
   43.7884  -14.0613    0.0000 S   0  0  0  0  0  0  0  0  0  0  0  0
   43.7884  -15.4667    0.0000 O   0  0  0  0  0  0  0  0  0  0  0  0
   45.1939  -14.0613    0.0000 O   0  0  0  0  0  0  0  0  0  0  0  0
   43.7884  -12.6557    0.0000 O   0  0  0  0  0  0  0  0  0  0  0  0
   42.3830  -14.0613    0.0000 O   0  0  0  0  0  0  0  0  0  0  0  0
   43.7884  -14.0613    0.0000 S   0  0  0  0  0  0  0  0  0  0  0  0
   43.7884  -15.4667    0.0000 O   0  0  0  0  0  0  0  0  0  0  0  0
   45.1939  -14.0613    0.0000 O   0  0  0  0  0  0  0  0  0  0  0  0
   43.7884  -12.6557    0.0000 O   0  0  0  0  0  0  0  0  0  0  0  0
   42.3830  -14.0613    0.0000 O   0  0  0  0  0  0  0  0  0  0  0  0
   43.7884  -14.0613    0.0000 S   0  0  0  0  0  0  0  0  0  0  0  0
   43.7884  -15.4667    0.0000 O   0  0  0  0  0  0  0  0  0  0  0  0
   45.1939  -14.0613    0.0000 O   0  0  0  0  0  0  0  0  0  0  0  0
   43.7884  -12.6557    0.0000 O   0  0  0  0  0  0  0  0  0  0  0  0
   42.3830  -14.0613    0.0000 O   0  0  0  0  0  0  0  0  0  0  0  0
   43.7884  -14.0613    0.0000 S   0  0  0  0  0  0  0  0  0  0  0  0
   43.7884  -15.4667    0.0000 O   0  0  0  0  0  0  0  0  0  0  0  0
   45.1939  -14.0613    0.0000 O   0  0  0  0  0  0  0  0  0  0  0  0
   43.7884  -12.6557    0.0000 O   0  0  0  0  0  0  0  0  0  0  0  0
   42.3830  -14.0613    0.0000 O   0  0  0  0  0  0  0  0  0  0  0  0
   29.0933  -19.7038    0.0000 C   0  0  0  0  0  0  0  0  0  0  0  0
   30.3008  -20.4028    0.0000 C   0  0  0  0  0  0  0  0  0  0  0  0
   27.8786  -20.4028    0.0000 O   0  0  0  0  0  0  0  0  0  0  0  0
   29.0933  -18.0184    0.0000 C   0  0  0  0  0  0  0  0  0  0  0  0
   27.8786  -17.3264    0.0000 C   0  0  0  0  0  0  0  0  0  0  0  0
   27.8786  -15.9281    0.0000 O   0  0  0  0  0  0  0  0  0  0  0  0
   26.6711  -18.0184    0.0000 N   0  0  0  0  0  0  0  0  0  0  0  0
   25.4494  -17.3264    0.0000 C   0  0  0  0  0  0  0  0  0  0  0  0
   25.4494  -15.9281    0.0000 C   0  0  0  0  0  0  0  0  0  0  0  0
   24.2419  -15.2222    0.0000 C   0  0  0  0  0  0  0  0  0  0  0  0
   23.0274  -15.9281    0.0000 N   0  0  0  0  0  0  0  0  0  0  0  0
   21.8198  -15.2222    0.0000 C   0  0  0  0  0  0  0  0  0  0  0  0
   20.6053  -15.9281    0.0000 C   0  0  0  0  0  0  0  0  0  0  0  0
   19.3978  -15.2222    0.0000 N   0  0  0  0  0  0  0  0  0  0  0  0
   18.1831  -15.9281    0.0000 C   0  0  0  0  0  0  0  0  0  0  0  0
   16.9615  -15.2222    0.0000 C   0  0  0  0  0  0  0  0  0  0  0  0
   15.7541  -15.9281    0.0000 N   0  0  0  0  0  0  0  0  0  0  0  0
   14.5394  -15.2222    0.0000 C   0  0  0  0  0  0  0  0  0  0  0  0
   13.3319  -15.9281    0.0000 C   0  0  0  0  0  0  0  0  0  0  0  0
   12.1172  -15.2222    0.0000 N   0  0  0  0  0  0  0  0  0  0  0  0
   10.9098  -15.9281    0.0000 C   0  0  0  0  0  0  0  0  0  0  0  0
    9.6951  -15.2222    0.0000 C   0  0  0  0  0  0  0  0  0  0  0  0
    8.4876  -15.9281    0.0000 C   0  0  0  0  0  0  0  0  0  0  0  0
    7.2660  -15.2222    0.0000 C   0  0  0  0  0  0  0  0  0  0  0  0
    6.0515  -15.9281    0.0000 C   0  0  0  0  0  0  0  0  0  0  0  0
    4.8439  -15.2222    0.0000 C   0  0  0  0  0  0  0  0  0  0  0  0
    3.6292  -15.9281    0.0000 C   0  0  0  0  0  0  0  0  0  0  0  0
    2.4217  -15.2222    0.0000 R   0  0  0  0  0  0  0  0  0  0  0  0
    4.8439  -13.8239    0.0000 C   0  0  0  0  0  0  0  0  0  0  0  0
   10.9098  -17.3264    0.0000 O   0  0  0  0  0  0  0  0  0  0  0  0
   13.3319  -17.3264    0.0000 C   0  0  0  0  0  0  0  0  0  0  0  0
   12.1172  -18.0184    0.0000 C   0  0  0  0  0  0  0  0  0  0  0  0
   12.1172  -19.4238    0.0000 N   0  0  0  0  0  0  0  0  0  0  0  0
   14.5394  -13.8239    0.0000 O   0  0  0  0  0  0  0  0  0  0  0  0
   16.9615  -13.4739    0.0000 C   0  0  0  0  0  0  0  0  0  0  0  0
   15.7541  -12.7819    0.0000 C   0  0  0  0  0  0  0  0  0  0  0  0
   18.1831  -12.7819    0.0000 O   0  0  0  0  0  0  0  0  0  0  0  0
   18.1831  -17.3264    0.0000 O   0  0  0  0  0  0  0  0  0  0  0  0
   20.6053  -17.3264    0.0000 C   0  0  0  0  0  0  0  0  0  0  0  0
   19.3978  -18.0184    0.0000 C   0  0  0  0  0  0  0  0  0  0  0  0
   19.3978  -19.4238    0.0000 N   0  0  0  0  0  0  0  0  0  0  0  0
   21.8198  -13.8239    0.0000 O   0  0  0  0  0  0  0  0  0  0  0  0
   24.2419  -13.8239    0.0000 C   0  0  0  0  0  0  0  0  0  0  0  0
   23.0274  -13.1319    0.0000 O   0  0  0  0  0  0  0  0  0  0  0  0
   25.4494  -13.1319    0.0000 N   0  0  0  0  0  0  0  0  0  0  0  0
   25.4494  -11.7267    0.0000 C   0  0  0  0  0  0  0  0  0  0  0  0
   24.2419  -11.0275    0.0000 C   0  0  0  0  0  0  0  0  0  0  0  0
   24.2419   -9.6294    0.0000 C   0  0  0  0  0  0  0  0  0  0  0  0
   23.0274   -8.9303    0.0000 N   0  0  0  0  0  0  0  0  0  0  0  0
   26.6711  -11.0275    0.0000 C   0  0  0  0  0  0  0  0  0  0  0  0
   26.6711   -9.6294    0.0000 O   0  0  0  0  0  0  0  0  0  0  0  0
   27.8786  -11.7267    0.0000 N   0  0  0  0  0  0  0  0  0  0  0  0
   29.0933  -11.0275    0.0000 C   0  0  0  0  0  0  0  0  0  0  0  0
   29.0933   -9.3494    0.0000 C   0  0  0  0  0  0  0  0  0  0  0  0
   30.3008   -8.6503    0.0000 C   0  0  0  0  0  0  0  0  0  0  0  0
   31.5648   -9.3494    0.0000 C   0  0  0  0  0  0  0  0  0  0  0  0
   30.3008   -7.2098    0.0000 C   0  0  0  0  0  0  0  0  0  0  0  0
   30.3008  -11.7267    0.0000 C   0  0  0  0  0  0  0  0  0  0  0  0
   30.3008  -13.1319    0.0000 O   0  0  0  0  0  0  0  0  0  0  0  0
   31.5153  -11.0275    0.0000 N   0  0  0  0  0  0  0  0  0  0  0  0
   32.7300  -11.7267    0.0000 C   0  0  0  0  0  0  0  0  0  0  0  0
   33.9376  -11.0275    0.0000 C   0  0  0  0  0  0  0  0  0  0  0  0
   35.1522  -11.7267    0.0000 C   0  0  0  0  0  0  0  0  0  0  0  0
   36.3666  -11.0275    0.0000 C   0  0  0  0  0  0  0  0  0  0  0  0
   35.1522  -13.1319    0.0000 C   0  0  0  0  0  0  0  0  0  0  0  0
   32.7300  -13.1319    0.0000 C   0  0  0  0  0  0  0  0  0  0  0  0
   31.5153  -13.8239    0.0000 O   0  0  0  0  0  0  0  0  0  0  0  0
   33.9376  -13.8239    0.0000 N   0  0  0  0  0  0  0  0  0  0  0  0
   34.8271  -14.7560    0.0000 C   0  0  0  0  0  0  0  0  0  0  0  0
   34.1281  -15.9281    0.0000 C   0  0  0  0  0  0  0  0  0  0  0  0
   32.7300  -15.9281    0.0000 N   0  0  0  0  0  0  0  0  0  0  0  0
   32.7300  -17.3264    0.0000 C   0  0  0  0  0  0  0  0  0  0  0  0
   31.5153  -18.0184    0.0000 C   0  0  0  0  0  0  0  0  0  0  0  0
   30.3008  -17.3264    0.0000 N   0  0  0  0  0  0  0  0  0  0  0  0
   31.5153  -19.4238    0.0000 O   0  0  0  0  0  0  0  0  0  0  0  0
   33.9376  -18.0184    0.0000 C   0  0  0  0  0  0  0  0  0  0  0  0
   33.9376  -19.4238    0.0000 C   0  0  0  0  0  0  0  0  0  0  0  0
   35.1522  -20.1228    0.0000 N   0  0  0  0  0  0  0  0  0  0  0  0
   34.8271  -17.1357    0.0000 O   0  0  0  0  0  0  0  0  0  0  0  0
   36.2253  -14.7560    0.0000 C   0  0  0  0  0  0  0  0  0  0  0  0
   36.9404  -15.9936    0.0000 C   0  0  0  0  0  0  0  0  0  0  0  0
   38.3596  -15.9936    0.0000 N   0  0  0  0  0  0  0  0  0  0  0  0
   12.1989  -18.9634    0.0000 C   0  0  0  0  0  0  0  0  0  0  0  0
   12.1989  -17.5641    0.0000 C   0  0  0  0  0  0  0  0  0  0  0  0
   13.4117  -16.8645    0.0000 C   0  0  0  0  0  0  0  0  0  0  0  0
   14.6243  -17.5641    0.0000 C   0  0  0  0  0  0  0  0  0  0  0  0
   14.6243  -18.9634    0.0000 C   0  0  0  0  0  0  0  0  0  0  0  0
   13.4117  -19.6630    0.0000 C   0  0  0  0  0  0  0  0  0  0  0  0
   15.8370  -19.6630    0.0000 C   0  0  0  0  0  0  0  0  0  0  0  0
   17.0498  -18.9634    0.0000 N   0  0  0  0  0  0  0  0  0  0  0  0
   18.2624  -19.6630    0.0000 C   0  0  0  0  0  0  0  0  0  0  0  0
   19.4751  -18.9634    0.0000 C   0  0  0  0  0  0  0  0  0  0  0  0
   20.6878  -19.6630    0.0000 N   0  0  0  0  0  0  0  0  0  0  0  0
   17.0498  -17.5641    0.0000 C   0  0  0  0  0  0  0  0  0  0  0  0
   15.8370  -16.8645    0.0000 N   0  0  0  0  0  0  0  0  0  0  0  0
   15.8370  -15.4652    0.0000 C   0  0  0  0  0  0  0  0  0  0  0  0
   17.0498  -14.7656    0.0000 C   0  0  0  0  0  0  0  0  0  0  0  0
   18.2624  -15.4652    0.0000 C   0  0  0  0  0  0  0  0  0  0  0  0
   18.2624  -16.8645    0.0000 N   0  0  0  0  0  0  0  0  0  0  0  0
   10.9862  -16.8645    0.0000 O   0  0  0  0  0  0  0  0  0  0  0  0
    9.7736  -17.5641    0.0000 C   0  0  0  0  0  0  0  0  0  0  0  0
   21.9208  -18.9502    0.0000 C   0  0  0  0  0  0  0  0  0  0  0  0
   20.6884  -21.0696    0.0000 C   0  0  0  0  0  0  0  0  0  0  0  0
   20.6878  -18.1930    0.0000 C   0  0  0  0  0  0  0  0  0  0  0  0
   23.2040  -19.6496    0.0000 C   0  0  0  0  0  0  0  0  0  0  0  0
   24.3817  -18.9687    0.0000 C   0  0  0  0  0  0  0  0  0  0  0  0
   26.4887  -19.6590    0.0000 C   0  0  0  0  0  0  0  0  0  0  0  0
   20.5470  -16.5845    0.0000 Br  0  0  0  0  0  0  0  0  0  0  0  0
   23.2040  -19.6496    0.0000 C   0  0  0  0  0  0  0  0  0  0  0  0
   24.3817  -18.9687    0.0000 C   0  0  0  0  0  0  0  0  0  0  0  0
   23.2040  -19.6496    0.0000 C   0  0  0  0  0  0  0  0  0  0  0  0
   24.3817  -18.9687    0.0000 C   0  0  0  0  0  0  0  0  0  0  0  0
   23.2040  -19.6496    0.0000 C   0  0  0  0  0  0  0  0  0  0  0  0
   24.3817  -18.9687    0.0000 C   0  0  0  0  0  0  0  0  0  0  0  0
   23.2040  -19.6496    0.0000 C   0  0  0  0  0  0  0  0  0  0  0  0
   24.3817  -18.9687    0.0000 C   0  0  0  0  0  0  0  0  0  0  0  0
   23.2040  -19.6496    0.0000 C   0  0  0  0  0  0  0  0  0  0  0  0
   24.3817  -18.9687    0.0000 C   0  0  0  0  0  0  0  0  0  0  0  0
   23.2040  -19.6496    0.0000 C   0  0  0  0  0  0  0  0  0  0  0  0
   24.3817  -18.9687    0.0000 C   0  0  0  0  0  0  0  0  0  0  0  0
  1  2  1  0
  1  3  1  0
  1  4  1  0
  1  5  1  1
  2  6  1  0
  2  7  1  1
  3  8  1  0
  3  9  1  0
  3 10  1  6
  4 11  1  0
  6 12  1  0
  6 13  1  6
  9 14  1  0
  9 15  2  0
 11 16  1  1
 12 17  1  0
 13 18  1  0
 14 19  1  0
 17 20  1  0
 17 21  1  0
 17 22  1  1
 19 23  1  0
 20 24  2  0
 21 25  1  0
 23 26  1  0
 23 27  2  0
 24 28  1  0
 28 29  2  0
  7  8  1  0
 12 11  1  1
 18 20  1  0
 25 28  1  0
 30 31  2  0
 30 32  1  0
 30 33  2  0
 30 34  1  0
117118  2  0
117119  1  0
117120  2  0
117121  1  0
122123  2  0
122124  1  0
122125  2  0
122126  1  0
127128  2  0
127129  1  0
127130  2  0
127131  1  0
132133  2  0
132134  1  0
132135  2  0
132136  1  0
 35 36  1  0
 35 37  1  0
 51 52  1  0
 52 53  1  0
 53 54  1  0
 54 55  1  0
 41 56  2  0
 57 58  1  0
 44 58  1  0
 43 59  1  0
 44 60  1  0
 57 61  1  0
 57 62  1  0
 60 63  2  0
 59 64  1  0
 64 65  1  0
 64 66  1  0
 42 67  2  0
 38 68  1  0
 46 69  2  0
 47 70  1  0
 51 71  2  0
 54 72  2  0
 55 73  1  0
 73 74  1  0
 60 75  1  0
 74 76  1  0
 75 76  1  0
 76 77  1  0
 55 78  1  0
 78 79  1  0
 79 80  1  0
 68 81  1  0
 81 82  1  0
 70 83  1  0
 83 84  1  0
 84 85  1  0
 85 86  1  0
 86 87  1  0
 87 88  1  0
 88 89  1  0
 89 90  1  0
 90 91  1  0
 91 92  1  0
 92 93  1  0
 93 94  1  0
 94 95  1  0
 95 96  1  0
 96 97  1  0
 97 98  1  0
 98 99  1  0
 83100  2  0
 84101  1  0
 86102  2  0
 87103  1  0
103104  1  0
103105  1  0
 89106  2  0
 90107  1  0
 92108  2  0
 97109  1  0
101110  1  0
110111  1  0
107112  1  0
112113  1  0
 74114  2  0
 38 39  1  0
 40 41  1  0
 38 41  1  0
 42 43  1  0
 40 43  1  0
 44 45  1  0
 42 45  1  0
 39 46  1  0
 46 47  1  0
 47 48  1  0
 48 49  1  0
 49 50  1  0
 50 51  1  0
 35 52  1  0
 77115  1  0
115116  1  0
137138  1  0
137139  1  0
141140  1  0
140210  1  0
210209  1  0
209208  1  0
186187  2  0
199198  1  0
197198  1  0
189190  1  0
197202  1  0
199200  1  0
199201  1  0
202203  2  0
190191  1  0
191192  1  0
191193  1  0
194195  2  0
182183  1  0
179180  2  0
146147  1  0
141142  2  0
209211  2  0
208207  1  0
207206  1  0
202204  1  0
206205  1  0
204205  1  0
205216  1  0
208212  1  0
212213  1  0
213214  1  0
183184  1  0
184185  1  0
147148  1  0
148149  1  0
149150  1  0
150151  1  0
151152  1  0
152153  1  0
153154  1  0
154155  1  0
155156  1  0
156157  1  0
157158  1  0
158159  1  0
159160  1  0
160161  1  0
161162  1  0
162163  1  0
163164  1  0
148178  2  0
149175  1  0
151174  2  0
152171  1  0
171172  1  0
171173  1  0
154170  2  0
155167  1  0
157166  2  0
162165  1  0
175176  1  0
176177  1  0
167168  1  0
168169  1  0
206215  2  0
182181  1  0
188186  1  0
182186  1  0
194189  1  0
188189  1  0
197196  1  0
194196  1  0
181179  1  0
179146  1  0
146145  1  0
145144  1  0
144143  1  0
143141  1  0
137140  1  0
216217  1  0
217218  1  0
219220  2  0
220221  1  0
221222  2  0
222223  1  0
223224  2  0
219224  1  0
223225  1  0
225226  1  0
226227  1  0
227228  1  0
228229  1  0
226230  1  0
230231  2  0
231232  1  0
232233  2  0
233234  1  0
234235  2  0
230235  1  0
220236  1  0
236237  1  0
229238  1  0
229239  1  0
229240  1  0
238241  1  0
241242  1  0
242245  1  0
245246  1  0
246247  1  0
247248  1  0
248249  1  0
249250  1  0
250251  1  0
251252  1  0
252253  1  0
253254  1  0
254255  1  0
255256  1  0
256243  1  0
M  CHG  2 229   1 244  -1
V   99 *
V  164 *
M  END
