 
     RDKit          2D

 70 72  0  2  1  0  0  0  0  0999 V2000
   37.7489  -12.8084    0.0000 C   0  0  0  0  0  0  0  0  0  0  0  0
   38.9644  -12.1088    0.0000 C   0  0  0  0  0  0  0  0  0  0  0  0
   40.1800  -12.8084    0.0000 O   0  0  0  0  0  0  0  0  0  0  0  0
   27.9308  -15.6197    0.0000 C   0  0  0  0  0  0  0  0  0  0  0  0
   27.9590  -16.9683    0.0000 C   0  0  0  0  0  0  0  0  0  0  0  0
   29.1130  -14.9598    0.0000 C   0  0  0  0  0  0  0  0  0  0  0  0
   26.7715  -14.9311    0.0000 C   0  0  0  0  0  0  0  0  0  0  0  0
   26.7429  -17.6341    0.0000 C   0  0  0  0  0  0  0  0  0  0  0  0
   29.0729  -17.6626    0.0000 C   0  0  0  0  0  0  0  0  0  0  0  0
   30.2664  -15.6541    0.0000 C   0  0  0  0  0  0  0  0  0  0  0  0
   25.5893  -15.5968    0.0000 C   0  0  0  0  0  0  0  0  0  0  0  0
   25.6479  -16.9510    0.0000 C   0  0  0  0  0  0  0  0  0  0  0  0
   26.7372  -18.9940    0.0000 O   0  0  0  0  0  0  0  0  0  0  0  0
   30.2549  -17.0028    0.0000 C   0  0  0  0  0  0  0  0  0  0  0  0
   29.0252  -19.0227    0.0000 O   0  0  0  0  0  0  0  0  0  0  0  0
   31.4603  -14.9943    0.0000 O   0  0  0  0  0  0  0  0  0  0  0  0
   24.4188  -14.9138    0.0000 C   0  0  0  0  0  0  0  0  0  0  0  0
   24.4073  -17.6283    0.0000 C   0  0  0  0  0  0  0  0  0  0  0  0
   31.4200  -17.7029    0.0000 C   0  0  0  0  0  0  0  0  0  0  0  0
   23.2479  -15.5854    0.0000 C   0  0  0  0  0  0  0  0  0  0  0  0
   23.2422  -16.9453    0.0000 C   0  0  0  0  0  0  0  0  0  0  0  0
   24.4073  -18.9824    0.0000 O   0  0  0  0  0  0  0  0  0  0  0  0
   32.6080  -17.0372    0.0000 N   0  0  0  0  0  0  0  0  0  0  0  0
   31.4482  -19.0628    0.0000 O   0  0  0  0  0  0  0  0  0  0  0  0
   22.0598  -14.9081    0.0000 C   0  0  0  0  0  0  0  0  0  0  0  0
   22.0657  -17.6226    0.0000 C   0  0  0  0  0  0  0  0  0  0  0  0
   20.8891  -15.5910    0.0000 C   0  0  0  0  0  0  0  0  0  0  0  0
   20.8891  -16.9510    0.0000 C   0  0  0  0  0  0  0  0  0  0  0  0
   22.0657  -18.9824    0.0000 O   0  0  0  0  0  0  0  0  0  0  0  0
   24.4240  -13.2010    0.0000 C   0  0  0  0  0  0  0  0  0  0  0  0
   29.1354  -12.7712    0.0000 N   0  0  0  0  0  0  0  0  0  0  0  0
   30.3355  -12.1044    0.0000 C   0  0  0  0  0  0  0  0  0  0  0  0
   27.9578  -12.0654    0.0000 C   0  0  0  0  0  0  0  0  0  0  0  0
   26.7614  -13.2147    0.0000 O   0  0  0  0  0  0  0  0  0  0  0  0
   27.9056  -18.3392    0.0000 O   0  0  0  0  0  0  0  0  0  0  0  0
   38.8478  -15.3293    0.0000 Cl  0  0  0  0  0  0  0  0  0  0  0  0
   39.5477  -17.8490    0.0000 O   0  0  0  0  0  0  0  0  0  0  0  0
   27.9308  -15.6197    0.0000 C   0  0  0  0  0  0  0  0  0  0  0  0
   27.9590  -16.9683    0.0000 C   0  0  0  0  0  0  0  0  0  0  0  0
   26.7429  -17.6341    0.0000 C   0  0  0  0  0  0  0  0  0  0  0  0
   25.6479  -16.9510    0.0000 C   0  0  0  0  0  0  0  0  0  0  0  0
   24.4073  -17.6283    0.0000 C   0  0  0  0  0  0  0  0  0  0  0  0
   23.2422  -16.9453    0.0000 C   0  0  0  0  0  0  0  0  0  0  0  0
   22.0657  -17.6226    0.0000 C   0  0  0  0  0  0  0  0  0  0  0  0
   20.8891  -16.9510    0.0000 C   0  0  0  0  0  0  0  0  0  0  0  0
   20.8891  -15.5910    0.0000 C   0  0  0  0  0  0  0  0  0  0  0  0
   22.0598  -14.9081    0.0000 C   0  0  0  0  0  0  0  0  0  0  0  0
   23.2479  -15.5854    0.0000 C   0  0  0  0  0  0  0  0  0  0  0  0
   24.4188  -14.9138    0.0000 C   0  0  0  0  0  0  0  0  0  0  0  0
   25.5893  -15.5968    0.0000 C   0  0  0  0  0  0  0  0  0  0  0  0
   26.7715  -14.9311    0.0000 C   0  0  0  0  0  0  0  0  0  0  0  0
   26.7614  -13.2147    0.0000 O   0  0  0  0  0  0  0  0  0  0  0  0
   24.4240  -13.2010    0.0000 C   0  0  0  0  0  0  0  0  0  0  0  0
   22.0657  -18.9824    0.0000 O   0  0  0  0  0  0  0  0  0  0  0  0
   24.4073  -18.9824    0.0000 O   0  0  0  0  0  0  0  0  0  0  0  0
   26.7372  -18.9940    0.0000 O   0  0  0  0  0  0  0  0  0  0  0  0
   29.0729  -17.6626    0.0000 C   0  0  0  0  0  0  0  0  0  0  0  0
   30.2549  -17.0028    0.0000 C   0  0  0  0  0  0  0  0  0  0  0  0
   31.4200  -17.7029    0.0000 C   0  0  0  0  0  0  0  0  0  0  0  0
   32.6080  -17.0372    0.0000 N   0  0  0  0  0  0  0  0  0  0  0  0
   31.4482  -19.0628    0.0000 O   0  0  0  0  0  0  0  0  0  0  0  0
   30.2664  -15.6541    0.0000 C   0  0  0  0  0  0  0  0  0  0  0  0
   31.4603  -14.9943    0.0000 O   0  0  0  0  0  0  0  0  0  0  0  0
   29.1130  -14.9598    0.0000 C   0  0  0  0  0  0  0  0  0  0  0  0
   29.1354  -12.7712    0.0000 N   0  0  0  0  0  0  0  0  0  0  0  0
   30.3355  -12.1044    0.0000 C   0  0  0  0  0  0  0  0  0  0  0  0
   27.9578  -12.0654    0.0000 C   0  0  0  0  0  0  0  0  0  0  0  0
   29.0252  -19.0227    0.0000 O   0  0  0  0  0  0  0  0  0  0  0  0
   27.9056  -18.3392    0.0000 O   0  0  0  0  0  0  0  0  0  0  0  0
   38.8478  -15.3293    0.0000 Cl  0  0  0  0  0  0  0  0  0  0  0  0
  1  2  1  0
  2  3  1  0
  8 12  2  0
  8 13  1  0
  9 14  1  0
  9 15  2  0
 10 16  1  0
 11 17  1  0
 12 18  1  0
 14 19  1  0
 17 20  1  0
 18 21  1  0
 18 22  2  0
 19 23  1  0
 19 24  2  0
 20 25  2  0
 21 26  2  0
 25 27  1  0
 26 28  1  0
 26 29  1  0
 10 14  2  0
 11 12  1  1
 20 21  1  0
 27 28  2  0
 17 30  1  6
  6 31  1  6
  4  5  1  0
 31 32  1  0
  4  6  1  1
 31 33  1  0
  4  7  1  0
  5  8  1  0
  5  9  1  0
  7 34  1  6
  6 10  1  0
  5 35  1  6
  7 11  1  0
 40 41  2  0
 40 56  1  0
 57 58  1  0
 57 68  2  0
 62 63  1  0
 50 49  1  0
 41 42  1  0
 58 59  1  0
 49 48  1  0
 42 43  1  0
 42 55  2  0
 59 60  1  0
 59 61  2  0
 48 47  2  0
 43 44  2  0
 47 46  1  0
 44 45  1  0
 44 54  1  0
 62 58  2  0
 50 41  1  1
 48 43  1  0
 46 45  2  0
 49 53  1  6
 64 65  1  6
 38 39  1  0
 65 66  1  0
 38 64  1  1
 65 67  1  0
 38 51  1  0
 39 40  1  0
 39 57  1  0
 51 52  1  6
 64 62  1  0
 39 69  1  6
 51 50  1  0
M  STY  2   1 MUL   2 MUL
M  SLB  2   1   1   2   2
M  SCN  2   1 HT    2 HT 
M  SAL   1 15   4   5   6   7   8   9  10  11  12  13  14  15  16  17  18
M  SAL   1 15  19  20  21  22  23  24  25  26  27  28  29  30  31  32  33
M  SAL   1 15  34  35  38  39  40  41  42  43  44  45  46  47  48  49  50
M  SAL   1 15  51  52  53  54  55  56  57  58  59  60  61  62  63  64  65
M  SAL   1  4  66  67  68  69
M  SPA   1 15   4   5   8  12  18  21  26  28  27  25  20  17  11   7  34
M  SPA   1 15  30  29  22  13   9  14  19  23  24  10  16   6  31  32  33
M  SPA   1  2  15  35
M  SDI   1  4   20.0900  -19.8800   20.0900  -10.9900
M  SDI   1  4   34.3700  -10.9900   34.3700  -19.8800
M  SMT   1 2
M  SAL   2  2  36  70
M  SPA   2  1  36
M  SDI   2  4   37.1700  -16.1700   37.1700  -14.4200
M  SDI   2  4   39.7600  -14.4200   39.7600  -16.1700
M  SMT   2 2
M  END
