6321309
     RDKit          2D

 35 38  0  0  1  0  0  0  0  0999 V2000
    7.5929    0.0000    0.0000 Cl  0  0  0  0  0  0  0  0  0  0  0  0
    5.9864    5.4055    0.0000 O   0  0  0  0  0  0  0  0  0  0  0  0
    8.9111    3.6355    0.0000 O   0  0  0  0  0  0  0  0  0  0  0  0
    5.7550    2.9505    0.0000 O   0  0  0  0  0  0  0  0  0  0  0  0
    5.7550    7.7548    0.0000 O   0  0  0  0  0  0  0  0  0  0  0  0
    1.4030    1.7824    0.0000 O   0  0  0  0  0  0  0  0  0  0  0  0
    3.1350    5.7824    0.0000 O   0  0  0  0  0  0  0  0  0  0  0  0
    9.9156    4.4016    0.0000 N   0  0  0  0  0  0  0  0  0  0  0  0
    1.4030    5.7824    0.0000 N   0  0  0  0  0  0  0  0  0  0  0  0
    7.4447    4.8771    0.0000 C   0  0  0  0  0  0  0  0  0  0  0  0
    8.2683    4.4016    0.0000 C   0  0  0  0  0  0  0  0  0  0  0  0
    9.0920    4.8771    0.0000 C   0  0  0  0  0  0  0  0  0  0  0  0
    6.6210    4.4016    0.0000 C   0  0  0  0  0  0  0  0  0  0  0  0
    7.9942    5.5746    0.0000 C   0  0  0  0  0  0  0  0  0  0  0  0
    7.4447    5.8282    0.0000 C   0  0  0  0  0  0  0  0  0  0  0  0
    8.2683    3.4505    0.0000 C   0  0  0  0  0  0  0  0  0  0  0  0
    9.0920    5.8282    0.0000 C   0  0  0  0  0  0  0  0  0  0  0  0
    9.3468    5.5746    0.0000 C   0  0  0  0  0  0  0  0  0  0  0  0
    8.2683    6.3037    0.0000 C   0  0  0  0  0  0  0  0  0  0  0  0
    7.4447    2.9750    0.0000 C   0  0  0  0  0  0  0  0  0  0  0  0
    6.6210    3.4505    0.0000 C   0  0  0  0  0  0  0  0  0  0  0  0
    6.6210    6.3037    0.0000 C   0  0  0  0  0  0  0  0  0  0  0  0
   10.5968    3.6694    0.0000 C   0  0  0  0  0  0  0  0  0  0  0  0
    8.2683    7.2548    0.0000 C   0  0  0  0  0  0  0  0  0  0  0  0
    6.6210    7.2548    0.0000 C   0  0  0  0  0  0  0  0  0  0  0  0
    7.4447    7.7303    0.0000 C   0  0  0  0  0  0  0  0  0  0  0  0
    5.7550    8.7548    0.0000 C   0  0  0  0  0  0  0  0  0  0  0  0
    1.4030    4.7824    0.0000 C   0  0  0  0  0  0  0  0  0  0  0  0
    2.2690    4.2824    0.0000 C   0  0  0  0  0  0  0  0  0  0  0  0
    0.5369    4.2824    0.0000 C   0  0  0  0  0  0  0  0  0  0  0  0
    2.2690    3.2824    0.0000 C   0  0  0  0  0  0  0  0  0  0  0  0
    0.5369    3.2824    0.0000 C   0  0  0  0  0  0  0  0  0  0  0  0
    1.4030    2.7824    0.0000 C   0  0  0  0  0  0  0  0  0  0  0  0
    2.2690    6.2824    0.0000 C   0  0  0  0  0  0  0  0  0  0  0  0
    2.2690    7.2824    0.0000 C   0  0  0  0  0  0  0  0  0  0  0  0
 13  2  1  6
  2 22  1  0
 11  3  1  1
  4 21  2  0
  5 25  1  0
  5 27  1  0
  6 33  1  0
  7 34  2  0
  8 12  1  0
  8 18  1  0
  8 23  1  0
  9 28  1  0
  9 34  1  0
 10 11  1  0
 10 13  1  0
 10 14  1  1
 10 15  1  0
 11 12  1  0
 11 16  1  0
 12 17  1  1
 13 21  1  0
 14 18  1  0
 15 19  2  0
 15 22  1  0
 16 20  1  0
 17 19  1  0
 19 24  1  0
 20 21  1  0
 22 25  2  0
 24 26  2  0
 25 26  1  0
 28 29  2  0
 28 30  1  0
 29 31  1  0
 30 32  2  0
 31 33  2  0
 32 33  1  0
 34 35  1  0
M  END
