 
     RDKit          2D

 95106  0  0  1  0  0  0  0  0999 V2000
   24.4381  -17.6672    0.0000 C   0  0  0  0  0  0  0  0  0  0  0  0
   24.4321  -16.3168    0.0000 C   0  0  0  0  0  0  0  0  0  0  0  0
   25.6030  -18.3338    0.0000 C   0  0  0  0  0  0  0  0  0  0  0  0
   23.2847  -18.3454    0.0000 C   0  0  0  0  0  0  0  0  0  0  0  0
   23.2672  -15.6445    0.0000 C   0  0  0  0  0  0  0  0  0  0  0  0
   25.5972  -15.6445    0.0000 C   0  0  0  0  0  0  0  0  0  0  0  0
   26.7623  -17.6499    0.0000 C   0  0  0  0  0  0  0  0  0  0  0  0
   25.6087  -19.6668    0.0000 C   0  0  0  0  0  0  0  0  0  0  0  0
   26.7623  -19.2729    0.0000 O   0  0  0  0  0  0  0  0  0  0  0  0
   22.5833  -17.0126    0.0000 O   0  0  0  0  0  0  0  0  0  0  0  0
   23.2905  -19.6784    0.0000 C   0  0  0  0  0  0  0  0  0  0  0  0
   23.2672  -14.2999    0.0000 C   0  0  0  0  0  0  0  0  0  0  0  0
   26.7623  -16.3109    0.0000 C   0  0  0  0  0  0  0  0  0  0  0  0
   25.5972  -14.2999    0.0000 C   0  0  0  0  0  0  0  0  0  0  0  0
   27.9213  -18.3221    0.0000 N   0  0  0  0  0  0  0  0  0  0  0  0
   24.4554  -20.3450    0.0000 C   0  0  0  0  0  0  0  0  0  0  0  0
   22.1139  -20.3391    0.0000 O   0  0  0  0  0  0  0  0  0  0  0  0
   24.4321  -13.6277    0.0000 C   0  0  0  0  0  0  0  0  0  0  0  0
   22.0966  -13.6277    0.0000 O   0  0  0  0  0  0  0  0  0  0  0  0
   29.2659  -18.3221    0.0000 C   0  0  0  0  0  0  0  0  0  0  0  0
   27.9213  -16.9998    0.0000 C   0  0  0  0  0  0  0  0  0  0  0  0
   25.6435  -17.0412    0.0000 C   0  0  0  0  0  0  0  0  0  0  0  0
   20.8657  -14.3423    0.0000 C   0  0  0  0  0  0  0  0  0  0  0  0
   29.6100  -14.9100    0.0000 Cl  0  0  0  0  0  0  0  0  0  0  0  0
   18.5189   -7.7038    0.0000 C   0  0  0  0  0  0  0  0  0  0  0  0
   18.5189   -9.1090    0.0000 C   0  0  0  0  0  0  0  0  0  0  0  0
   17.3246   -7.0013    0.0000 C   0  0  0  0  0  0  0  0  0  0  0  0
   19.7133   -7.0013    0.0000 C   0  0  0  0  0  0  0  0  0  0  0  0
   19.7836   -9.8116    0.0000 O   0  0  0  0  0  0  0  0  0  0  0  0
   17.3246   -9.8116    0.0000 O   0  0  0  0  0  0  0  0  0  0  0  0
   17.3246   -5.5961    0.0000 C   0  0  0  0  0  0  0  0  0  0  0  0
   19.7133   -5.5961    0.0000 C   0  0  0  0  0  0  0  0  0  0  0  0
   18.5189   -4.9638    0.0000 C   0  0  0  0  0  0  0  0  0  0  0  0
   18.5189   -3.5586    0.0000 C   0  0  0  0  0  0  0  0  0  0  0  0
   19.7836   -2.8560    0.0000 O   0  0  0  0  0  0  0  0  0  0  0  0
   17.3246   -2.8560    0.0000 O   0  0  0  0  0  0  0  0  0  0  0  0
    7.4981   -7.5172    0.0000 C   0  0  0  0  0  0  0  0  0  0  0  0
    7.4921   -6.1668    0.0000 C   0  0  0  0  0  0  0  0  0  0  0  0
    8.6630   -8.1838    0.0000 C   0  0  0  0  0  0  0  0  0  0  0  0
    6.3447   -8.1954    0.0000 C   0  0  0  0  0  0  0  0  0  0  0  0
    6.3272   -5.4945    0.0000 C   0  0  0  0  0  0  0  0  0  0  0  0
    8.6572   -5.4945    0.0000 C   0  0  0  0  0  0  0  0  0  0  0  0
    9.8223   -7.4999    0.0000 C   0  0  0  0  0  0  0  0  0  0  0  0
    8.6687   -9.5168    0.0000 C   0  0  0  0  0  0  0  0  0  0  0  0
    9.8223   -9.1229    0.0000 O   0  0  0  0  0  0  0  0  0  0  0  0
    5.6433   -6.8626    0.0000 O   0  0  0  0  0  0  0  0  0  0  0  0
    6.3505   -9.5284    0.0000 C   0  0  0  0  0  0  0  0  0  0  0  0
    6.3272   -4.1499    0.0000 C   0  0  0  0  0  0  0  0  0  0  0  0
    9.8223   -6.1609    0.0000 C   0  0  0  0  0  0  0  0  0  0  0  0
    8.6572   -4.1499    0.0000 C   0  0  0  0  0  0  0  0  0  0  0  0
   10.9813   -8.1721    0.0000 N   0  0  0  0  0  0  0  0  0  0  0  0
    7.5154  -10.1950    0.0000 C   0  0  0  0  0  0  0  0  0  0  0  0
    5.1739  -10.1891    0.0000 O   0  0  0  0  0  0  0  0  0  0  0  0
    7.4921   -3.4777    0.0000 C   0  0  0  0  0  0  0  0  0  0  0  0
    5.1566   -3.4777    0.0000 O   0  0  0  0  0  0  0  0  0  0  0  0
   12.3259   -8.1721    0.0000 C   0  0  0  0  0  0  0  0  0  0  0  0
   10.9813   -6.8498    0.0000 C   0  0  0  0  0  0  0  0  0  0  0  0
    8.7035   -6.8912    0.0000 C   0  0  0  0  0  0  0  0  0  0  0  0
    3.9257   -4.1923    0.0000 C   0  0  0  0  0  0  0  0  0  0  0  0
    7.4981   -7.5172    0.0000 C   0  0  0  0  0  0  0  0  0  0  0  0
    7.4921   -6.1668    0.0000 C   0  0  0  0  0  0  0  0  0  0  0  0
    6.3272   -5.4945    0.0000 C   0  0  0  0  0  0  0  0  0  0  0  0
    6.3272   -4.1499    0.0000 C   0  0  0  0  0  0  0  0  0  0  0  0
    7.4921   -3.4777    0.0000 C   0  0  0  0  0  0  0  0  0  0  0  0
    8.6572   -4.1499    0.0000 C   0  0  0  0  0  0  0  0  0  0  0  0
    8.6572   -5.4945    0.0000 C   0  0  0  0  0  0  0  0  0  0  0  0
    9.8223   -6.1609    0.0000 C   0  0  0  0  0  0  0  0  0  0  0  0
    9.8223   -7.4999    0.0000 C   0  0  0  0  0  0  0  0  0  0  0  0
    8.6630   -8.1838    0.0000 C   0  0  0  0  0  0  0  0  0  0  0  0
    8.6687   -9.5168    0.0000 C   0  0  0  0  0  0  0  0  0  0  0  0
    7.5154  -10.1950    0.0000 C   0  0  0  0  0  0  0  0  0  0  0  0
    6.3505   -9.5284    0.0000 C   0  0  0  0  0  0  0  0  0  0  0  0
    6.3447   -8.1954    0.0000 C   0  0  0  0  0  0  0  0  0  0  0  0
    5.6433   -6.8626    0.0000 O   0  0  0  0  0  0  0  0  0  0  0  0
    5.1739  -10.1891    0.0000 O   0  0  0  0  0  0  0  0  0  0  0  0
    9.8223   -9.1229    0.0000 O   0  0  0  0  0  0  0  0  0  0  0  0
   10.9813   -8.1721    0.0000 N   0  0  0  0  0  0  0  0  0  0  0  0
   12.3259   -8.1721    0.0000 C   0  0  0  0  0  0  0  0  0  0  0  0
   10.9813   -6.8498    0.0000 C   0  0  0  0  0  0  0  0  0  0  0  0
    8.7035   -6.8912    0.0000 C   0  0  0  0  0  0  0  0  0  0  0  0
    5.1566   -3.4777    0.0000 O   0  0  0  0  0  0  0  0  0  0  0  0
    3.9257   -4.1923    0.0000 C   0  0  0  0  0  0  0  0  0  0  0  0
   20.2981  -15.8105    0.0000 C   0  0  0  0  0  0  0  0  0  0  0  0
   21.5226  -16.5029    0.0000 C   0  0  0  0  0  0  0  0  0  0  0  0
   19.0928  -16.5029    0.0000 C   0  0  0  0  0  0  0  0  0  0  0  0
   20.2981  -14.6227    0.0000 C   0  0  0  0  0  0  0  0  0  0  0  0
   21.5226  -17.9133    0.0000 C   0  0  0  0  0  0  0  0  0  0  0  0
   22.7278  -15.8040    0.0000 O   0  0  0  0  0  0  0  0  0  0  0  0
   19.0928  -17.9133    0.0000 C   0  0  0  0  0  0  0  0  0  0  0  0
   21.5033  -13.9240    0.0000 O   0  0  0  0  0  0  0  0  0  0  0  0
   19.0863  -13.9304    0.0000 O   0  0  0  0  0  0  0  0  0  0  0  0
   20.2981  -18.6250    0.0000 C   0  0  0  0  0  0  0  0  0  0  0  0
   23.9396  -16.4964    0.0000 C   0  0  0  0  0  0  0  0  0  0  0  0
   25.1450  -15.7977    0.0000 C   0  0  0  0  0  0  0  0  0  0  0  0
   23.9396  -17.8942    0.0000 O   0  0  0  0  0  0  0  0  0  0  0  0
  1  2  1  0
  1  3  1  0
  1  4  1  0
  2  5  2  0
  2  6  1  0
  3  7  1  0
  3  8  1  0
  3  9  1  1
  4 10  1  6
  4 11  1  0
  5 12  1  0
  6 13  1  0
  6 14  2  0
  7 15  1  0
  8 16  1  0
 11 17  2  0
 12 18  2  0
 12 19  1  0
 15 20  1  0
  5 10  1  0
  7 13  1  1
 11 16  1  0
 14 18  1  0
 15 21  1  0
  1 22  1  1
 22 21  1  0
 19 23  1  0
 25 26  1  0
 25 27  2  0
 25 28  1  0
 26 29  1  0
 26 30  2  0
 27 31  1  0
 28 32  2  0
 31 33  2  0
 33 34  1  0
 34 35  1  0
 34 36  2  0
 32 33  1  0
 37 38  1  0
 37 39  1  0
 37 40  1  0
 38 41  2  0
 38 42  1  0
 39 43  1  0
 39 44  1  0
 39 45  1  1
 40 46  1  6
 40 47  1  0
 41 48  1  0
 42 49  1  0
 42 50  2  0
 43 51  1  0
 44 52  1  0
 47 53  2  0
 48 54  2  0
 48 55  1  0
 51 56  1  0
 41 46  1  0
 43 49  1  1
 47 52  1  0
 50 54  1  0
 51 57  1  0
 37 58  1  1
 58 57  1  0
 55 59  1  0
 60 61  1  0
 60 69  1  0
 60 73  1  0
 61 62  1  0
 61 66  2  0
 69 68  1  0
 69 70  1  0
 69 76  1  1
 73 74  1  6
 73 72  1  0
 62 63  2  0
 66 67  1  0
 66 65  1  0
 68 77  1  0
 70 71  1  0
 72 75  2  0
 63 64  1  0
 63 81  1  0
 77 78  1  0
 62 74  1  0
 68 67  1  1
 72 71  1  0
 65 64  2  0
 77 79  1  0
 60 80  1  1
 80 79  1  0
 81 82  1  0
 83 84  2  0
 83 85  1  0
 83 86  1  0
 84 87  1  0
 84 88  1  0
 85 89  2  0
 86 90  1  0
 86 91  2  0
 87 92  2  0
 88 93  1  0
 93 94  1  0
 93 95  2  0
 89 92  1  0
M  END
