 
     RDKit          2D

 43 44  0  0  0  0  0  0  0  0999 V2000
   36.6100  -17.9200    0.0000 Cl  0  0  0  0  0  0  0  0  0  0  0  0
   30.0300  -18.4100    0.0000 C   0  0  0  0  0  0  0  0  0  0  0  0
   31.2200  -17.7100    0.0000 C   0  0  0  0  0  0  0  0  0  0  0  0
   30.0300  -19.8100    0.0000 C   0  0  0  0  0  0  0  0  0  0  0  0
   28.8400  -17.7100    0.0000 C   0  0  0  0  0  0  0  0  0  0  0  0
   31.2200  -16.3100    0.0000 C   0  0  0  0  0  0  0  0  0  0  0  0
   32.5500  -18.4100    0.0000 C   0  0  0  0  0  0  0  0  0  0  0  0
   31.2200  -20.5100    0.0000 C   0  0  0  0  0  0  0  0  0  0  0  0
   28.8400  -20.5100    0.0000 C   0  0  0  0  0  0  0  0  0  0  0  0
   27.5800  -18.4100    0.0000 C   0  0  0  0  0  0  0  0  0  0  0  0
   32.4800  -15.6100    0.0000 C   0  0  0  0  0  0  0  0  0  0  0  0
   32.5500  -19.8100    0.0000 C   0  0  0  0  0  0  0  0  0  0  0  0
   27.5800  -19.8100    0.0000 C   0  0  0  0  0  0  0  0  0  0  0  0
   33.8100  -16.1000    0.0000 N   0  0  0  0  0  0  0  0  0  0  0  0
   32.4800  -14.2800    0.0000 N   0  0  0  0  0  0  0  0  0  0  0  0
   34.6500  -14.9100    0.0000 C   0  0  0  0  0  0  0  0  0  0  0  0
   33.8100  -13.7900    0.0000 C   0  0  0  0  0  0  0  0  0  0  0  0
   23.7732  -20.5940    0.0000 C   0  0  0  0  0  0  0  0  0  0  0  0
   23.7732  -22.0189    0.0000 C   0  0  0  0  0  0  0  0  0  0  0  0
   22.5362  -22.7313    0.0000 C   0  0  0  0  0  0  0  0  0  0  0  0
   21.3065  -22.0189    0.0000 C   0  0  0  0  0  0  0  0  0  0  0  0
   21.3065  -20.5940    0.0000 C   0  0  0  0  0  0  0  0  0  0  0  0
   22.5362  -19.8815    0.0000 N   0  0  0  0  0  0  0  0  0  0  0  0
   20.0720  -19.8824    0.0000 C   0  0  0  0  0  0  0  0  0  0  0  0
   18.8386  -20.5959    0.0000 C   0  0  0  0  0  0  0  0  0  0  0  0
   20.0709  -18.4575    0.0000 C   0  0  0  0  0  0  0  0  0  0  0  0
   18.8452  -22.0187    0.0000 C   0  0  0  0  0  0  0  0  0  0  0  0
   17.6119  -22.7320    0.0000 C   0  0  0  0  0  0  0  0  0  0  0  0
   16.3773  -22.0206    0.0000 C   0  0  0  0  0  0  0  0  0  0  0  0
   16.3763  -20.5957    0.0000 C   0  0  0  0  0  0  0  0  0  0  0  0
   17.6098  -19.8822    0.0000 C   0  0  0  0  0  0  0  0  0  0  0  0
   21.3045  -17.7442    0.0000 C   0  0  0  0  0  0  0  0  0  0  0  0
   21.3034  -16.3194    0.0000 N   0  0  0  0  0  0  0  0  0  0  0  0
   22.5368  -15.6061    0.0000 C   0  0  0  0  0  0  0  0  0  0  0  0
   20.0689  -15.6078    0.0000 C   0  0  0  0  0  0  0  0  0  0  0  0
   31.4718  -19.5879    0.0000 C   0  0  0  0  0  0  0  0  0  0  0  0
   30.8228  -18.4682    0.0000 C   0  0  0  0  0  0  0  0  0  0  0  0
   30.8287  -20.7135    0.0000 O   0  0  0  0  0  0  0  0  0  0  0  0
   32.7703  -19.5819    0.0000 O   0  0  0  0  0  0  0  0  0  0  0  0
   29.1284  -18.4741    0.0000 C   0  0  0  0  0  0  0  0  0  0  0  0
   28.4852  -19.5997    0.0000 C   0  0  0  0  0  0  0  0  0  0  0  0
   27.1868  -19.5997    0.0000 O   0  0  0  0  0  0  0  0  0  0  0  0
   29.1403  -20.7194    0.0000 O   0  0  0  0  0  0  0  0  0  0  0  0
  2  3  1  0
  2  4  1  0
  2  5  2  0
  3  6  1  0
  3  7  2  0
  4  8  1  0
  4  9  2  0
  5 10  1  0
  6 11  1  0
  7 12  1  0
  9 13  1  0
 11 14  1  0
 11 15  2  0
 14 16  1  0
 15 17  1  0
  8 12  2  0
 10 13  2  0
 16 17  1  0
 27 28  2  0
 28 29  1  0
 29 30  2  0
 30 31  1  0
 31 25  2  0
 26 32  1  0
 22 24  1  0
 32 33  1  0
 33 34  1  0
 24 25  1  0
 33 35  1  0
 18 19  2  0
 24 26  1  0
 19 20  1  0
 20 21  2  0
 21 22  1  0
 22 23  2  0
 23 18  1  0
 25 27  1  0
 41 42  1  0
 41 43  2  0
 36 37  1  0
 36 38  1  0
 36 39  2  0
 37 40  2  0
 40 41  1  0
M  END
