 
     RDKit          2D

 99100  0  0  1  0  0  0  0  0999 V2000
   25.0103  -17.6390    0.0000 N   0  0  0  0  0  0  0  0  0  0  0  0
   23.6350  -18.1111    0.0000 C   0  0  0  0  0  0  0  0  0  0  0  0
   21.3970  -18.1111    0.0000 C   0  0  0  0  0  0  0  0  0  0  0  0
   20.1381  -17.4117    0.0000 C   0  0  0  0  0  0  0  0  0  0  0  0
   18.9492  -18.1111    0.0000 O   0  0  0  0  0  0  0  0  0  0  0  0
   21.8166  -19.4399    0.0000 S   0  0  0  0  0  0  0  0  0  0  0  0
   22.5160  -17.2718    0.0000 O   0  0  0  0  0  0  0  0  0  0  0  0
   23.2154  -19.4399    0.0000 C   0  0  0  0  0  0  0  0  0  0  0  0
   25.0206  -16.2402    0.0000 C   0  0  0  0  0  0  0  0  0  0  0  0
   26.2146  -15.5496    0.0000 C   0  0  0  0  0  0  0  0  0  0  0  0
   27.4684  -16.2582    0.0000 C   0  0  0  0  0  0  0  0  0  0  0  0
   27.4581  -17.6570    0.0000 N   0  0  0  0  0  0  0  0  0  0  0  0
   26.2641  -18.3476    0.0000 C   0  0  0  0  0  0  0  0  0  0  0  0
   28.6624  -15.5676    0.0000 N   0  0  0  0  0  0  0  0  0  0  0  0
   26.1549  -14.1509    0.0000 F   0  0  0  0  0  0  0  0  0  0  0  0
   26.2538  -19.7463    0.0000 O   0  0  0  0  0  0  0  0  0  0  0  0
   30.8992  -18.5945    0.0000 C   0  0  0  0  0  0  0  0  0  0  0  0
   32.1576  -19.2936    0.0000 C   0  0  0  0  0  0  0  0  0  0  0  0
   33.3460  -18.5945    0.0000 C   0  0  0  0  0  0  0  0  0  0  0  0
   34.5345  -19.2936    0.0000 C   0  0  0  0  0  0  0  0  0  0  0  0
   35.7928  -18.5945    0.0000 O   0  0  0  0  0  0  0  0  0  0  0  0
   29.7108  -19.2936    0.0000 O   0  0  0  0  0  0  0  0  0  0  0  0
   30.8992  -17.1963    0.0000 O   0  0  0  0  0  0  0  0  0  0  0  0
   34.5345  -20.6917    0.0000 O   0  0  0  0  0  0  0  0  0  0  0  0
   26.5368  -16.8840    0.0000 C   0  0  0  0  0  0  0  0  0  0  0  0
   26.5368  -15.4243    0.0000 C   0  0  0  0  0  0  0  0  0  0  0  0
   25.2162  -17.3012    0.0000 N   0  0  0  0  0  0  0  0  0  0  0  0
   27.7880  -17.5096    0.0000 N   0  0  0  0  0  0  0  0  0  0  0  0
   25.2162  -15.0073    0.0000 N   0  0  0  0  0  0  0  0  0  0  0  0
   27.7880  -14.7987    0.0000 C   0  0  0  0  0  0  0  0  0  0  0  0
   24.3820  -16.1889    0.0000 C   0  0  0  0  0  0  0  0  0  0  0  0
   28.9697  -16.8840    0.0000 C   0  0  0  0  0  0  0  0  0  0  0  0
   28.9697  -15.4243    0.0000 N   0  0  0  0  0  0  0  0  0  0  0  0
   27.7880  -13.4085    0.0000 N   0  0  0  0  0  0  0  0  0  0  0  0
   25.2162  -18.6945    0.0000 C   0  0  0  0  0  0  0  0  0  0  0  0
   24.0155  -19.3876    0.0000 C   0  0  0  0  0  0  0  0  0  0  0  0
   22.8023  -18.6870    0.0000 O   0  0  0  0  0  0  0  0  0  0  0  0
   21.5805  -19.3928    0.0000 C   0  0  0  0  0  0  0  0  0  0  0  0
   20.3622  -18.6904    0.0000 P   0  0  0  0  0  0  0  0  0  0  0  0
   19.1554  -17.9937    0.0000 O   0  0  0  0  0  0  0  0  0  0  0  0
   19.6691  -19.8908    0.0000 O   0  0  0  0  0  0  0  0  0  0  0  0
   21.0616  -17.4784    0.0000 O   0  0  0  0  0  0  0  0  0  0  0  0
   19.1554  -16.5955    0.0000 C   0  0  0  0  0  0  0  0  0  0  0  0
   19.6691  -21.2890    0.0000 C   0  0  0  0  0  0  0  0  0  0  0  0
   17.9438  -15.8681    0.0000 O   0  0  0  0  0  0  0  0  0  0  0  0
   16.7329  -16.5671    0.0000 C   0  0  0  0  0  0  0  0  0  0  0  0
   15.5220  -15.8681    0.0000 O   0  0  0  0  0  0  0  0  0  0  0  0
   14.3112  -16.5671    0.0000 C   0  0  0  0  0  0  0  0  0  0  0  0
   13.1003  -15.8681    0.0000 C   0  0  0  0  0  0  0  0  0  0  0  0
   18.4331  -22.0200    0.0000 O   0  0  0  0  0  0  0  0  0  0  0  0
   17.2222  -21.3209    0.0000 C   0  0  0  0  0  0  0  0  0  0  0  0
   16.0114  -22.0200    0.0000 O   0  0  0  0  0  0  0  0  0  0  0  0
   14.8006  -21.3209    0.0000 C   0  0  0  0  0  0  0  0  0  0  0  0
   13.5897  -22.0200    0.0000 C   0  0  0  0  0  0  0  0  0  0  0  0
   16.7329  -17.9651    0.0000 O   0  0  0  0  0  0  0  0  0  0  0  0
   14.3112  -17.9652    0.0000 C   0  0  0  0  0  0  0  0  0  0  0  0
   17.2222  -19.9230    0.0000 O   0  0  0  0  0  0  0  0  0  0  0  0
   14.8006  -19.9229    0.0000 C   0  0  0  0  0  0  0  0  0  0  0  0
   24.0154  -20.7900    0.0000 C   0  0  0  0  0  0  0  0  0  0  0  0
   20.6991  -15.3146    0.0000 C   0  0  0  0  0  0  0  0  0  0  0  0
   20.6991  -13.8460    0.0000 C   0  0  0  0  0  0  0  0  0  0  0  0
   19.3705  -15.7341    0.0000 N   0  0  0  0  0  0  0  0  0  0  0  0
   21.9579  -15.9439    0.0000 N   0  0  0  0  0  0  0  0  0  0  0  0
   19.3705  -13.4265    0.0000 N   0  0  0  0  0  0  0  0  0  0  0  0
   21.9579  -13.2167    0.0000 C   0  0  0  0  0  0  0  0  0  0  0  0
   18.5313  -14.6153    0.0000 C   0  0  0  0  0  0  0  0  0  0  0  0
   23.1467  -15.3146    0.0000 C   0  0  0  0  0  0  0  0  0  0  0  0
   23.1467  -13.8460    0.0000 N   0  0  0  0  0  0  0  0  0  0  0  0
   21.9579  -11.8880    0.0000 N   0  0  0  0  0  0  0  0  0  0  0  0
   19.3705  -17.1327    0.0000 C   0  0  0  0  0  0  0  0  0  0  0  0
   18.1817  -17.8320    0.0000 C   0  0  0  0  0  0  0  0  0  0  0  0
   16.9929  -17.1327    0.0000 O   0  0  0  0  0  0  0  0  0  0  0  0
   15.7341  -17.8320    0.0000 C   0  0  0  0  0  0  0  0  0  0  0  0
   14.5453  -17.1327    0.0000 P   0  0  0  0  0  0  0  0  0  0  0  0
   13.3565  -16.4334    0.0000 O   0  0  0  0  0  0  0  0  0  0  0  0
   13.8460  -18.3215    0.0000 O   0  0  0  0  0  0  0  0  0  0  0  0
   15.2446  -15.9439    0.0000 O   0  0  0  0  0  0  0  0  0  0  0  0
   13.3565  -15.0348    0.0000 C   0  0  0  0  0  0  0  0  0  0  0  0
   13.8460  -19.7201    0.0000 C   0  0  0  0  0  0  0  0  0  0  0  0
   12.0978  -14.3355    0.0000 O   0  0  0  0  0  0  0  0  0  0  0  0
   10.9090  -15.0348    0.0000 C   0  0  0  0  0  0  0  0  0  0  0  0
    9.7202  -14.3355    0.0000 O   0  0  0  0  0  0  0  0  0  0  0  0
    8.4615  -15.0348    0.0000 C   0  0  0  0  0  0  0  0  0  0  0  0
    7.2727  -14.3355    0.0000 C   0  0  0  0  0  0  0  0  0  0  0  0
   12.5873  -20.4893    0.0000 O   0  0  0  0  0  0  0  0  0  0  0  0
   11.3985  -19.7900    0.0000 C   0  0  0  0  0  0  0  0  0  0  0  0
   10.2097  -20.4893    0.0000 O   0  0  0  0  0  0  0  0  0  0  0  0
    8.9510  -19.7900    0.0000 C   0  0  0  0  0  0  0  0  0  0  0  0
    7.7622  -20.4893    0.0000 C   0  0  0  0  0  0  0  0  0  0  0  0
   10.9090  -16.4334    0.0000 O   0  0  0  0  0  0  0  0  0  0  0  0
    8.4615  -16.4334    0.0000 C   0  0  0  0  0  0  0  0  0  0  0  0
   11.3985  -18.3915    0.0000 O   0  0  0  0  0  0  0  0  0  0  0  0
    8.9510  -18.3915    0.0000 C   0  0  0  0  0  0  0  0  0  0  0  0
   18.1817  -19.2306    0.0000 C   0  0  0  0  0  0  0  0  0  0  0  0
   25.7600  -19.1100    0.0000 P   0  0  0  0  0  0  0  0  0  0  0  0
   25.7600  -17.7100    0.0000 O   0  0  0  0  0  0  0  0  0  0  0  0
   27.1600  -19.1100    0.0000 O   0  0  0  0  0  0  0  0  0  0  0  0
   24.3600  -19.1100    0.0000 O   0  0  0  0  0  0  0  0  0  0  0  0
   25.7600  -20.5100    0.0000 O   0  0  0  0  0  0  0  0  0  0  0  0
  8  6  1  0
  4  5  1  0
  2  1  1  6
  3  4  1  6
  6  3  1  0
  1  9  1  0
  9 10  2  0
 10 11  1  0
 11 12  2  0
 12 13  1  0
 13  1  1  0
  3  7  1  0
 11 14  1  0
  7  2  1  0
 10 15  1  0
  2  8  1  0
 13 16  2  0
 17 18  1  0
 18 19  2  0
 19 20  1  0
 20 21  1  0
 17 22  1  0
 17 23  2  0
 20 24  2  0
 26 29  1  0
 26 30  1  0
 27 31  1  0
 28 32  2  0
 30 33  2  0
 29 31  2  0
 32 33  1  0
 25 26  2  0
 25 27  1  0
 25 28  1  0
 30 34  1  0
 27 35  1  0
 35 36  1  0
 36 37  1  0
 37 38  1  0
 38 39  1  0
 39 40  1  0
 39 41  1  0
 39 42  2  0
 40 43  1  0
 41 44  1  0
 43 45  1  0
 45 46  1  0
 46 47  1  0
 47 48  1  0
 48 49  1  0
 44 50  1  0
 50 51  1  0
 51 52  1  0
 52 53  1  0
 53 54  1  0
 46 55  2  0
 48 56  1  0
 51 57  2  0
 53 58  1  0
 36 59  1  1
 61 64  1  0
 61 65  1  0
 62 66  1  0
 63 67  2  0
 65 68  2  0
 64 66  2  0
 67 68  1  0
 60 61  2  0
 60 62  1  0
 60 63  1  0
 65 69  1  0
 62 70  1  0
 70 71  1  0
 71 72  1  0
 72 73  1  0
 73 74  1  0
 74 75  1  0
 74 76  1  0
 74 77  2  0
 75 78  1  0
 76 79  1  0
 78 80  1  0
 80 81  1  0
 81 82  1  0
 82 83  1  0
 83 84  1  0
 79 85  1  0
 85 86  1  0
 86 87  1  0
 87 88  1  0
 88 89  1  0
 81 90  2  0
 83 91  1  0
 86 92  2  0
 88 93  1  0
 71 94  1  1
 95 96  2  0
 95 97  1  0
 95 98  1  0
 95 99  1  0
M  END
