 
     RDKit          2D

 32 35  0  0  1  0  0  0  0  0999 V2000
   15.2600   -7.7700    0.0000 C   0  0  0  0  0  0  0  0  0  0  0  0
   14.0700   -8.4700    0.0000 C   0  0  0  0  0  0  0  0  0  0  0  0
   15.2600   -6.4400    0.0000 C   0  0  0  0  0  0  0  0  0  0  0  0
   17.5700   -7.7700    0.0000 C   0  0  0  0  0  0  0  0  0  0  0  0
   12.8800   -7.7700    0.0000 C   0  0  0  0  0  0  0  0  0  0  0  0
   14.0700   -9.8000    0.0000 C   0  0  0  0  0  0  0  0  0  0  0  0
   16.4500   -5.7400    0.0000 C   0  0  0  0  0  0  0  0  0  0  0  0
   14.0700   -5.7400    0.0000 C   0  0  0  0  0  0  0  0  0  0  0  0
   15.2600   -5.0400    0.0000 C   0  0  0  0  0  0  0  0  0  0  0  0
   17.5700   -6.4400    0.0000 C   0  0  0  0  0  0  0  0  0  0  0  0
   11.6900   -8.4700    0.0000 C   0  0  0  0  0  0  0  0  0  0  0  0
   12.8800   -6.4400    0.0000 C   0  0  0  0  0  0  0  0  0  0  0  0
   12.8800  -10.5000    0.0000 C   0  0  0  0  0  0  0  0  0  0  0  0
   16.4500   -4.3400    0.0000 C   0  0  0  0  0  0  0  0  0  0  0  0
   11.6900   -9.8000    0.0000 C   0  0  0  0  0  0  0  0  0  0  0  0
   10.5000   -7.7700    0.0000 C   0  0  0  0  0  0  0  0  0  0  0  0
   11.6900   -7.0700    0.0000 C   0  0  0  0  0  0  0  0  0  0  0  0
   11.6900   -5.7400    0.0000 O   0  0  0  0  0  0  0  0  0  0  0  0
   17.6400   -3.6400    0.0000 C   0  0  0  0  0  0  0  0  0  0  0  0
   15.2600   -3.6400    0.0000 O   0  0  0  0  0  0  0  0  0  0  0  0
   10.5000  -10.5000    0.0000 C   0  0  0  0  0  0  0  0  0  0  0  0
    9.3100   -8.4700    0.0000 C   0  0  0  0  0  0  0  0  0  0  0  0
   18.8300   -4.3400    0.0000 O   0  0  0  0  0  0  0  0  0  0  0  0
    9.3100   -9.8000    0.0000 C   0  0  0  0  0  0  0  0  0  0  0  0
    8.1200  -10.5000    0.0000 O   0  0  0  0  0  0  0  0  0  0  0  0
   17.6745   -5.0613    0.0000 O   0  0  0  0  0  0  0  0  0  0  0  0
   18.8397   -5.7615    0.0000 C   0  0  0  0  0  0  0  0  0  0  0  0
   20.0658   -5.0820    0.0000 C   0  0  0  0  0  0  0  0  0  0  0  0
   21.2960   -5.8210    0.0000 C   0  0  0  0  0  0  0  0  0  0  0  0
   22.5127   -5.1462    0.0000 C   0  0  0  0  0  0  0  0  0  0  0  0
   23.7480   -5.8876    0.0000 C   0  0  0  0  0  0  0  0  0  0  0  0
   18.8155   -7.1399    0.0000 O   0  0  0  0  0  0  0  0  0  0  0  0
  1  2  1  0
  1  3  1  0
  1  4  1  1
  2  5  1  0
  2  6  1  6
  3  7  1  0
  3  8  1  0
  3  9  1  1
  4 10  1  0
  5 11  1  0
  5 12  1  1
  6 13  1  0
  7 14  1  0
 11 15  1  0
 11 16  1  0
 11 17  1  1
 12 18  1  1
 14 19  1  0
 14 20  2  0
 15 21  2  0
 16 22  1  0
 19 23  1  0
 21 24  1  0
 24 25  2  0
  7 10  1  0
  8 12  1  0
 13 15  1  0
 22 24  1  0
  7 26  1  6
 26 27  1  0
 27 28  1  0
 28 29  1  0
 29 30  1  0
 30 31  1  0
 27 32  2  0
M  END
