 
     RDKit          2D

 27 24  0  2  1  0  0  0  0  0999 V2000
   13.6902  -15.3857    0.0000 C   0  0  0  0  0  0  0  0  0  0  0  0
   13.2543  -14.0545    0.0000 C   0  0  0  0  0  0  0  0  0  0  0  0
   14.3905  -13.2282    0.0000 O   0  0  0  0  0  0  0  0  0  0  0  0
   15.5267  -14.0545    0.0000 C   0  0  0  0  0  0  0  0  0  0  0  0
   15.0909  -15.3857    0.0000 C   0  0  0  0  0  0  0  0  0  0  0  0
   16.8594  -13.6234    0.0000 O   0  0  0  0  0  0  0  0  0  0  0  0
   15.9129  -16.5198    0.0000 O   0  0  0  0  0  0  0  0  0  0  0  0
   12.8684  -16.5198    0.0000 O   0  0  0  0  0  0  0  0  0  0  0  0
   12.0490  -13.3484    0.0000 C   0  0  0  0  0  0  0  0  0  0  0  0
   10.8394  -14.0487    0.0000 C   0  0  0  0  0  0  0  0  0  0  0  0
    9.6298  -13.3484    0.0000 O   0  0  0  0  0  0  0  0  0  0  0  0
   12.0528  -11.9478    0.0000 O   0  0  0  0  0  0  0  0  0  0  0  0
   19.1583  -14.3246    0.0000 Ca  0  0  0  0  0 15  0  0  0  0  0  0
   23.4805  -14.1832    0.0000 O   0  0  0  0  0  0  0  0  0  0  0  0
   13.6902  -15.3857    0.0000 C   0  0  0  0  0  0  0  0  0  0  0  0
   15.0909  -15.3857    0.0000 C   0  0  0  0  0  0  0  0  0  0  0  0
   15.9129  -16.5198    0.0000 O   0  0  0  0  0  0  0  0  0  0  0  0
   15.5267  -14.0545    0.0000 C   0  0  0  0  0  0  0  0  0  0  0  0
   16.8594  -13.6234    0.0000 O   0  0  0  0  0  0  0  0  0  0  0  0
   14.3905  -13.2282    0.0000 O   0  0  0  0  0  0  0  0  0  0  0  0
   13.2543  -14.0545    0.0000 C   0  0  0  0  0  0  0  0  0  0  0  0
   12.0490  -13.3484    0.0000 C   0  0  0  0  0  0  0  0  0  0  0  0
   10.8394  -14.0487    0.0000 C   0  0  0  0  0  0  0  0  0  0  0  0
    9.6298  -13.3484    0.0000 O   0  0  0  0  0  0  0  0  0  0  0  0
   12.0528  -11.9478    0.0000 O   0  0  0  0  0  0  0  0  0  0  0  0
   12.8684  -16.5198    0.0000 O   0  0  0  0  0  0  0  0  0  0  0  0
   23.4805  -14.1832    0.0000 O   0  0  0  0  0  0  0  0  0  0  0  0
  5  1  2  0
  4  6  2  0
  5  7  1  0
  1  8  1  0
  2  9  1  0
  1  2  1  0
  9 10  1  0
  2  3  1  1
 10 11  1  0
  3  4  1  0
  9 12  1  6
  4  5  1  0
 16 15  2  0
 18 19  2  0
 16 17  1  0
 15 26  1  0
 21 22  1  0
 15 21  1  0
 22 23  1  0
 21 20  1  1
 23 24  1  0
 20 18  1  0
 22 25  1  6
 18 16  1  0
M  CHG  3   8  -1  13   2  26  -1
M  STY  2   1 MUL   2 MUL
M  SLB  2   1   1   2   2
M  SCN  2   1 HT    2 HT 
M  SAL   1 15   1   2   3   4   5   6   7   8   9  10  11  12  15  16  17
M  SAL   1  9  18  19  20  21  22  23  24  25  26
M  SPA   1 12   1   5   7   4   6   3   2   9  10  11  12   8
M  SDI   1  4    8.4000  -17.5700    8.4000  -11.0600
M  SDI   1  4   17.6400  -11.0600   17.6400  -17.5700
M  SMT   1 2
M  SAL   2  2  14  27
M  SPA   2  1  14
M  SDI   2  4   21.9100  -15.1200   21.9100  -13.2300
M  SDI   2  4   24.0100  -13.2300   24.0100  -15.1200
M  SMT   2 2
M  END
