 
     RDKit          2D

 35 39  0  0  1  0  0  0  0  0999 V2000
   16.8028  -16.5491    0.0000 C   0  0  0  0  0  0  0  0  0  0  0  0
   16.8028  -17.9064    0.0000 C   0  0  0  0  0  0  0  0  0  0  0  0
   17.9782  -18.5850    0.0000 C   0  0  0  0  0  0  0  0  0  0  0  0
   19.1536  -17.9064    0.0000 C   0  0  0  0  0  0  0  0  0  0  0  0
   19.1536  -16.5491    0.0000 C   0  0  0  0  0  0  0  0  0  0  0  0
   17.9782  -15.8705    0.0000 C   0  0  0  0  0  0  0  0  0  0  0  0
   20.3291  -18.5850    0.0000 C   0  0  0  0  0  0  0  0  0  0  0  0
   21.5044  -17.9064    0.0000 C   0  0  0  0  0  0  0  0  0  0  0  0
   21.5044  -16.5491    0.0000 C   0  0  0  0  0  0  0  0  0  0  0  0
   20.3291  -15.8705    0.0000 C   0  0  0  0  0  0  0  0  0  0  0  0
   22.6799  -15.8705    0.0000 C   0  0  0  0  0  0  0  0  0  0  0  0
   22.6799  -14.5132    0.0000 C   0  0  0  0  0  0  0  0  0  0  0  0
   21.5044  -13.8346    0.0000 C   0  0  0  0  0  0  0  0  0  0  0  0
   20.3291  -14.5132    0.0000 C   0  0  0  0  0  0  0  0  0  0  0  0
   25.0307  -15.8705    0.0000 C   0  0  0  0  0  0  0  0  0  0  0  0
   25.0307  -14.5132    0.0000 C   0  0  0  0  0  0  0  0  0  0  0  0
   23.8553  -13.8346    0.0000 C   0  0  0  0  0  0  0  0  0  0  0  0
   19.1536  -15.1918    0.0000 C   0  0  0  0  0  0  0  0  0  0  0  0
   19.1556  -13.8358    0.0000 O   0  0  0  0  0  0  0  0  0  0  0  0
   22.6799  -13.1560    0.0000 C   0  0  0  0  0  0  0  0  0  0  0  0
   26.1936  -13.8417    0.0000 C   0  0  0  0  0  0  0  0  0  0  0  0
   23.8553  -11.0181    0.0000 C   0  0  0  0  0  0  0  0  0  0  0  0
   20.3291  -17.2277    0.0000 F   0  0  0  0  0  0  0  0  0  0  0  0
   25.0307  -12.9465    0.0000 O   0  0  0  0  0  0  0  0  0  0  0  0
   15.6275  -18.5850    0.0000 O   0  0  0  0  0  0  0  0  0  0  0  0
   25.0347  -10.3372    0.0000 O   0  0  0  0  0  0  0  0  0  0  0  0
   22.6838  -10.3417    0.0000 C   0  0  0  0  0  0  0  0  0  0  0  0
   21.5268  -11.0099    0.0000 O   0  0  0  0  0  0  0  0  0  0  0  0
   20.3311  -10.3193    0.0000 C   0  0  0  0  0  0  0  0  0  0  0  0
   19.1086  -11.0252    0.0000 C   0  0  0  0  0  0  0  0  0  0  0  0
   17.9123  -10.3351    0.0000 C   0  0  0  0  0  0  0  0  0  0  0  0
   16.7001  -11.0355    0.0000 C   0  0  0  0  0  0  0  0  0  0  0  0
   16.7006  -12.4355    0.0000 C   0  0  0  0  0  0  0  0  0  0  0  0
   17.8969  -13.1256    0.0000 C   0  0  0  0  0  0  0  0  0  0  0  0
   19.1091  -12.4252    0.0000 C   0  0  0  0  0  0  0  0  0  0  0  0
  1  2  1  0
  2  3  1  0
  3  4  2  0
  4  5  1  0
  5  6  1  0
  1  6  2  0
  4  7  1  0
  7  8  1  0
  9  8  1  6
  9 10  1  0
  5 10  1  0
  9 11  1  0
 11 12  1  0
 12 13  1  0
 13 14  1  0
 10 14  1  0
 11 15  1  1
 15 16  1  0
 16 17  1  0
 12 17  1  0
  5 18  1  1
 14 19  1  1
 12 20  1  1
 16 21  1  6
 17 22  1  0
 10 23  1  6
 17 24  1  6
  2 25  2  0
 22 26  2  0
 22 27  1  0
 27 28  1  0
 28 29  1  0
 29 30  1  0
 30 31  2  0
 31 32  1  0
 32 33  2  0
 33 34  1  0
 34 35  2  0
 30 35  1  0
M  END
