 
     RDKit          2D

 83 84  0  1  1  0  0  0  0  0999 V2000
   25.9451  -14.8660    0.0000 C   0  0  0  0  0  0  0  0  0  0  0  0
   25.9451  -16.2704    0.0000 C   0  0  0  0  0  0  0  0  0  0  0  0
   27.3495  -16.2704    0.0000 N   0  0  0  0  0  0  0  0  0  0  0  0
   27.3495  -14.8660    0.0000 C   0  0  0  0  0  0  0  0  0  0  0  0
   28.6836  -16.6916    0.0000 C   0  0  0  0  0  0  0  0  0  0  0  0
   29.5261  -15.5681    0.0000 C   0  0  0  0  0  0  0  0  0  0  0  0
   28.6836  -14.4446    0.0000 S   0  0  0  0  0  0  0  0  0  0  0  0
   30.5093  -16.5512    0.0000 C   0  0  0  0  0  0  0  0  0  0  0  0
   30.5093  -14.5850    0.0000 C   0  0  0  0  0  0  0  0  0  0  0  0
   29.1751  -18.0257    0.0000 C   0  0  0  0  0  0  0  0  0  0  0  0
   30.5794  -18.0257    0.0000 O   0  0  0  0  0  0  0  0  0  0  0  0
   28.3324  -19.1492    0.0000 O   0  0  0  0  0  0  0  0  0  0  0  0
   24.7514  -14.1638    0.0000 N   0  0  0  0  0  0  0  0  0  0  0  0
   23.5577  -14.8660    0.0000 C   0  0  0  0  0  0  0  0  0  0  0  0
   24.7514  -16.9725    0.0000 O   0  0  0  0  0  0  0  0  0  0  0  0
   23.5577  -16.2704    0.0000 O   0  0  0  0  0  0  0  0  0  0  0  0
   22.3386  -14.1687    0.0000 C   0  0  0  0  0  0  0  0  0  0  0  0
   21.1466  -14.8637    0.0000 C   0  0  0  0  0  0  0  0  0  0  0  0
   22.3386  -12.7679    0.0000 N   0  0  0  0  0  0  0  0  0  0  0  0
   19.9334  -14.1633    0.0000 C   0  0  0  0  0  0  0  0  0  0  0  0
   18.7203  -14.8637    0.0000 C   0  0  0  0  0  0  0  0  0  0  0  0
   18.7203  -16.2645    0.0000 C   0  0  0  0  0  0  0  0  0  0  0  0
   19.9334  -16.9649    0.0000 C   0  0  0  0  0  0  0  0  0  0  0  0
   21.1466  -16.2645    0.0000 C   0  0  0  0  0  0  0  0  0  0  0  0
   35.5115  -16.1114    0.0000 O   0  0  0  0  0  0  0  0  0  0  0  0
   35.5115  -16.1114    0.0000 O   0  0  0  0  0  0  0  0  0  0  0  0
   35.5115  -16.1114    0.0000 O   0  0  0  0  0  0  0  0  0  0  0  0
   28.4025  -14.8702    0.0000 C   0  0  0  0  0  0  0  0  0  0  0  0
   28.4025  -16.2751    0.0000 C   0  0  0  0  0  0  0  0  0  0  0  0
   29.8073  -16.2751    0.0000 N   0  0  0  0  0  0  0  0  0  0  0  0
   29.8073  -14.8702    0.0000 C   0  0  0  0  0  0  0  0  0  0  0  0
   31.1418  -16.6964    0.0000 C   0  0  0  0  0  0  0  0  0  0  0  0
   31.9845  -15.5725    0.0000 C   0  0  0  0  0  0  0  0  0  0  0  0
   31.1418  -14.4487    0.0000 S   0  0  0  0  0  0  0  0  0  0  0  0
   32.9680  -16.5559    0.0000 C   0  0  0  0  0  0  0  0  0  0  0  0
   32.9680  -14.5892    0.0000 C   0  0  0  0  0  0  0  0  0  0  0  0
   31.6334  -18.0309    0.0000 C   0  0  0  0  0  0  0  0  0  0  0  0
   33.0381  -18.0309    0.0000 O   0  0  0  0  0  0  0  0  0  0  0  0
   30.7905  -19.1546    0.0000 O   0  0  0  0  0  0  0  0  0  0  0  0
   27.2084  -14.1678    0.0000 N   0  0  0  0  0  0  0  0  0  0  0  0
   26.0144  -14.8702    0.0000 C   0  0  0  0  0  0  0  0  0  0  0  0
   27.2084  -16.9774    0.0000 O   0  0  0  0  0  0  0  0  0  0  0  0
   26.0144  -16.2751    0.0000 O   0  0  0  0  0  0  0  0  0  0  0  0
   24.7949  -14.1727    0.0000 C   0  0  0  0  0  0  0  0  0  0  0  0
   23.6026  -14.8679    0.0000 C   0  0  0  0  0  0  0  0  0  0  0  0
   24.7949  -12.7715    0.0000 N   0  0  0  0  0  0  0  0  0  0  0  0
   22.3890  -14.1673    0.0000 C   0  0  0  0  0  0  0  0  0  0  0  0
   21.1757  -14.8679    0.0000 C   0  0  0  0  0  0  0  0  0  0  0  0
   21.1757  -16.2692    0.0000 C   0  0  0  0  0  0  0  0  0  0  0  0
   22.3890  -16.9698    0.0000 C   0  0  0  0  0  0  0  0  0  0  0  0
   23.6026  -16.2692    0.0000 C   0  0  0  0  0  0  0  0  0  0  0  0
   34.5800  -18.0600    0.0000 Na  0  0  0  0  0 15  0  0  0  0  0  0
   27.5483  -14.8950    0.0000 C   0  0  0  0  0  0  0  0  0  0  0  0
   27.5483  -16.2592    0.0000 C   0  0  0  0  0  0  0  0  0  0  0  0
   28.9125  -16.2592    0.0000 N   0  0  0  0  0  0  0  0  0  0  0  0
   28.9125  -14.8950    0.0000 C   0  0  0  0  0  0  0  0  0  0  0  0
   30.2085  -16.6684    0.0000 C   0  0  0  0  0  0  0  0  0  0  0  0
   31.0270  -15.5771    0.0000 C   0  0  0  0  0  0  0  0  0  0  0  0
   30.2085  -14.4858    0.0000 S   0  0  0  0  0  0  0  0  0  0  0  0
   31.9819  -16.5320    0.0000 C   0  0  0  0  0  0  0  0  0  0  0  0
   31.9819  -14.6222    0.0000 C   0  0  0  0  0  0  0  0  0  0  0  0
   30.6859  -18.0326    0.0000 C   0  0  0  0  0  0  0  0  0  0  0  0
   32.0501  -18.0326    0.0000 O   0  0  0  0  0  0  0  0  0  0  0  0
   29.8674  -19.1240    0.0000 O   0  0  0  0  0  0  0  0  0  0  0  0
   26.3888  -14.2129    0.0000 N   0  0  0  0  0  0  0  0  0  0  0  0
   25.2292  -14.8950    0.0000 C   0  0  0  0  0  0  0  0  0  0  0  0
   26.3888  -16.9413    0.0000 O   0  0  0  0  0  0  0  0  0  0  0  0
   25.2292  -16.2592    0.0000 O   0  0  0  0  0  0  0  0  0  0  0  0
   24.0015  -14.2129    0.0000 C   0  0  0  0  0  0  0  0  0  0  0  0
   24.0015  -12.8488    0.0000 C   0  0  0  0  0  0  0  0  0  0  0  0
   22.7040  -12.4272    0.0000 O   0  0  0  0  0  0  0  0  0  0  0  0
   21.9022  -13.5308    0.0000 N   0  0  0  0  0  0  0  0  0  0  0  0
   22.7040  -14.6345    0.0000 C   0  0  0  0  0  0  0  0  0  0  0  0
   25.1051  -12.0469    0.0000 C   0  0  0  0  0  0  0  0  0  0  0  0
   22.7040  -16.0345    0.0000 C   0  0  0  0  0  0  0  0  0  0  0  0
   21.4757  -16.7439    0.0000 C   0  0  0  0  0  0  0  0  0  0  0  0
   21.4759  -18.1439    0.0000 C   0  0  0  0  0  0  0  0  0  0  0  0
   22.6884  -18.8437    0.0000 C   0  0  0  0  0  0  0  0  0  0  0  0
   23.9167  -18.1343    0.0000 C   0  0  0  0  0  0  0  0  0  0  0  0
   23.9165  -16.7343    0.0000 C   0  0  0  0  0  0  0  0  0  0  0  0
   20.2680  -16.0468    0.0000 Cl  0  0  0  0  0  0  0  0  0  0  0  0
   33.6189  -18.1008    0.0000 Na  0  0  0  0  0 15  0  0  0  0  0  0
   33.8917  -19.8743    0.0000 O   0  0  0  0  0  0  0  0  0  0  0  0
  1  2  1  0
  2  3  1  0
  3  4  1  0
  1  4  1  0
  3  5  1  0
  5  6  1  0
  6  7  1  0
  4  7  1  1
  6  8  1  0
  6  9  1  0
  5 10  1  6
 10 11  1  0
 10 12  2  0
  1 13  1  1
 13 14  1  0
  2 15  2  0
 14 16  2  0
 14 17  1  0
 17 18  1  0
 17 19  1  1
 18 20  2  0
 20 21  1  0
 21 22  2  0
 22 23  1  0
 23 24  2  0
 18 24  1  0
 28 29  1  0
 29 30  1  0
 30 31  1  0
 28 31  1  0
 30 32  1  0
 32 33  1  0
 33 34  1  0
 31 34  1  1
 33 35  1  0
 33 36  1  0
 32 37  1  6
 37 38  1  0
 37 39  2  0
 28 40  1  1
 40 41  1  0
 29 42  2  0
 41 43  2  0
 41 44  1  0
 44 45  1  0
 44 46  1  1
 45 47  2  0
 47 48  1  0
 48 49  2  0
 49 50  1  0
 50 51  2  0
 45 51  1  0
 53 54  1  0
 54 55  1  0
 55 56  1  0
 53 56  1  0
 55 57  1  0
 57 58  1  0
 58 59  1  0
 56 59  1  1
 58 60  1  0
 58 61  1  0
 57 62  1  6
 62 63  1  0
 62 64  2  0
 53 65  1  1
 65 66  1  0
 54 67  2  0
 66 68  2  0
 66 69  1  0
 69 70  2  0
 70 71  1  0
 71 72  1  0
 72 73  2  0
 69 73  1  0
 70 74  1  0
 73 75  1  0
 75 76  2  0
 76 77  1  0
 77 78  2  0
 78 79  1  0
 79 80  2  0
 75 80  1  0
 76 81  1  0
M  CHG  4  38  -1  52   1  63  -1  82   1
M  STY  1   1 MUL
M  SLB  1   1   1
M  SCN  1   1 HT 
M  SAL   1  3  25  26  27
M  SPA   1  1  25
M  SDI   1  4   33.5300  -17.0100   33.5300  -15.1900
M  SDI   1  4   35.9800  -15.1900   35.9800  -17.0100
M  SMT   1 3
M  END
