 
     RDKit          2D

 38 42  0  0  1  0  0  0  0  0999 V2000
   18.2728  -16.5491    0.0000 C   0  0  0  0  0  0  0  0  0  0  0  0
   18.2728  -17.9064    0.0000 C   0  0  0  0  0  0  0  0  0  0  0  0
   19.4482  -18.5850    0.0000 C   0  0  0  0  0  0  0  0  0  0  0  0
   20.6236  -17.9064    0.0000 C   0  0  0  0  0  0  0  0  0  0  0  0
   20.6236  -16.5491    0.0000 C   0  0  0  0  0  0  0  0  0  0  0  0
   19.4482  -15.8705    0.0000 C   0  0  0  0  0  0  0  0  0  0  0  0
   21.7991  -18.5850    0.0000 C   0  0  0  0  0  0  0  0  0  0  0  0
   22.9744  -17.9064    0.0000 C   0  0  0  0  0  0  0  0  0  0  0  0
   22.9744  -16.5491    0.0000 C   0  0  0  0  0  0  0  0  0  0  0  0
   21.7991  -15.8705    0.0000 C   0  0  0  0  0  0  0  0  0  0  0  0
   24.1499  -15.8705    0.0000 C   0  0  0  0  0  0  0  0  0  0  0  0
   24.1499  -14.5132    0.0000 C   0  0  0  0  0  0  0  0  0  0  0  0
   22.9744  -13.8346    0.0000 C   0  0  0  0  0  0  0  0  0  0  0  0
   21.7991  -14.5132    0.0000 C   0  0  0  0  0  0  0  0  0  0  0  0
   26.5007  -15.8705    0.0000 C   0  0  0  0  0  0  0  0  0  0  0  0
   26.5007  -14.5132    0.0000 C   0  0  0  0  0  0  0  0  0  0  0  0
   25.3253  -13.8346    0.0000 C   0  0  0  0  0  0  0  0  0  0  0  0
   20.6236  -15.1918    0.0000 C   0  0  0  0  0  0  0  0  0  0  0  0
   20.6256  -13.8358    0.0000 O   0  0  0  0  0  0  0  0  0  0  0  0
   24.1499  -13.1560    0.0000 C   0  0  0  0  0  0  0  0  0  0  0  0
   27.6636  -13.8417    0.0000 C   0  0  0  0  0  0  0  0  0  0  0  0
   25.3253  -12.1381    0.0000 C   0  0  0  0  0  0  0  0  0  0  0  0
   21.7991  -17.2277    0.0000 F   0  0  0  0  0  0  0  0  0  0  0  0
   27.0607  -12.7365    0.0000 O   0  0  0  0  0  0  0  0  0  0  0  0
   17.0975  -18.5850    0.0000 O   0  0  0  0  0  0  0  0  0  0  0  0
   26.5047  -11.4572    0.0000 O   0  0  0  0  0  0  0  0  0  0  0  0
   24.1538  -11.4617    0.0000 C   0  0  0  0  0  0  0  0  0  0  0  0
   22.9968  -12.1299    0.0000 O   0  0  0  0  0  0  0  0  0  0  0  0
   28.4607  -12.7365    0.0000 C   0  0  0  0  0  0  0  0  0  0  0  0
   29.1691  -13.9642    0.0000 O   0  0  0  0  0  0  0  0  0  0  0  0
   29.1663  -11.5142    0.0000 C   0  0  0  0  0  0  0  0  0  0  0  0
   30.5663  -11.5142    0.0000 C   0  0  0  0  0  0  0  0  0  0  0  0
   30.9989  -10.1827    0.0000 C   0  0  0  0  0  0  0  0  0  0  0  0
   29.8663   -9.3598    0.0000 C   0  0  0  0  0  0  0  0  0  0  0  0
   28.7337  -10.1827    0.0000 O   0  0  0  0  0  0  0  0  0  0  0  0
   21.8011  -11.4393    0.0000 C   0  0  0  0  0  0  0  0  0  0  0  0
   20.5786  -12.1452    0.0000 C   0  0  0  0  0  0  0  0  0  0  0  0
   21.8019  -10.0104    0.0000 O   0  0  0  0  0  0  0  0  0  0  0  0
  1  2  1  0
  2  3  1  0
  3  4  2  0
  4  5  1  0
  5  6  1  0
  1  6  2  0
  4  7  1  0
  7  8  1  0
  9  8  1  6
  9 10  1  0
  5 10  1  0
  9 11  1  0
 11 12  1  0
 12 13  1  0
 13 14  1  0
 10 14  1  0
 11 15  1  1
 15 16  1  0
 16 17  1  0
 12 17  1  0
  5 18  1  1
 14 19  1  1
 12 20  1  1
 16 21  1  6
 17 22  1  0
 10 23  1  6
 17 24  1  6
  2 25  2  0
 22 26  2  0
 22 27  1  0
 27 28  1  0
 24 29  1  0
 29 30  2  0
 29 31  1  0
 31 32  2  0
 32 33  1  0
 33 34  2  0
 34 35  1  0
 31 35  1  0
 28 36  1  0
 36 37  1  0
 36 38  2  0
M  END
