32645-61-7.mol
     RDKit          2D

 17 18  0  0  0  0  0  0  0  0999 V2000
   -2.6812   -0.7145    0.0000 C   0  0  0  0  0  0  0  0  0  0  0  0
   -3.0938    0.0000    0.0000 C   0  0  0  0  0  0  0  0  0  0  0  0
   -2.6812    0.7145    0.0000 C   0  0  0  0  0  0  0  0  0  0  0  0
   -1.8563    0.7145    0.0000 C   0  0  0  0  0  0  0  0  0  0  0  0
   -1.4437   -0.0000    0.0000 C   0  0  0  0  0  0  0  0  0  0  0  0
   -1.8562   -0.7145    0.0000 C   0  0  0  0  0  0  0  0  0  0  0  0
   -3.0938   -1.4289    0.0000 O   0  0  0  0  0  0  0  0  0  0  0  0
   -3.0938    1.4289    0.0000 O   0  0  0  0  0  0  0  0  0  0  0  0
   -0.6187   -0.0000    0.0000 C   0  0  0  0  0  0  0  0  0  0  0  0
   -0.2062   -0.7145    0.0000 C   0  0  0  0  0  0  0  0  0  0  0  0
    0.6188   -0.7145    0.0000 C   0  0  0  0  0  0  0  0  0  0  0  0
    1.0313    0.0000    0.0000 C   0  0  0  0  0  0  0  0  0  0  0  0
    1.8562    0.0000    0.0000 C   0  0  0  0  0  0  0  0  0  0  0  0
    2.2688   -0.7145    0.0000 C   0  0  0  0  0  0  0  0  0  0  0  0
    1.8563   -1.4289    0.0000 C   0  0  0  0  0  0  0  0  0  0  0  0
    1.0313   -1.4289    0.0000 C   0  0  0  0  0  0  0  0  0  0  0  0
    3.0938   -0.7145    0.0000 O   0  0  0  0  0  0  0  0  0  0  0  0
  1  2  2  0
  2  3  1  0
  3  4  2  0
  4  5  1  0
  5  6  2  0
  1  6  1  0
  1  7  1  0
  3  8  1  0
  9 10  2  0
 11 12  2  0
 12 13  1  0
 13 14  2  0
 14 15  1  0
 15 16  2  0
 11 16  1  0
 14 17  1  0
 10 11  1  0
  5  9  1  0
M  END
