 
     RDKit          2D

 60 63  0  0  0  0  0  0  0  0999 V2000
   22.8265  -17.0415    0.0000 C   0  0  0  0  0  0  0  0  0  0  0  0
   22.8265  -18.4441    0.0000 C   0  0  0  0  0  0  0  0  0  0  0  0
   24.0411  -19.1454    0.0000 C   0  0  0  0  0  0  0  0  0  0  0  0
   25.2559  -18.4441    0.0000 C   0  0  0  0  0  0  0  0  0  0  0  0
   25.2559  -17.0415    0.0000 C   0  0  0  0  0  0  0  0  0  0  0  0
   24.0411  -16.3402    0.0000 C   0  0  0  0  0  0  0  0  0  0  0  0
   26.4706  -19.1454    0.0000 S   0  0  0  0  0  0  0  0  0  0  0  0
   27.6853  -18.4441    0.0000 C   0  0  0  0  0  0  0  0  0  0  0  0
   27.6853  -17.0415    0.0000 C   0  0  0  0  0  0  0  0  0  0  0  0
   26.4706  -16.3402    0.0000 N   0  0  0  0  0  0  0  0  0  0  0  0
   28.9001  -19.1454    0.0000 C   0  0  0  0  0  0  0  0  0  0  0  0
   30.1147  -18.4441    0.0000 C   0  0  0  0  0  0  0  0  0  0  0  0
   30.1147  -17.0415    0.0000 C   0  0  0  0  0  0  0  0  0  0  0  0
   28.9001  -16.3402    0.0000 C   0  0  0  0  0  0  0  0  0  0  0  0
   26.4706  -14.9375    0.0000 C   0  0  0  0  0  0  0  0  0  0  0  0
   27.6874  -14.2350    0.0000 C   0  0  0  0  0  0  0  0  0  0  0  0
   28.8861  -14.9273    0.0000 C   0  0  0  0  0  0  0  0  0  0  0  0
   30.0752  -14.2408    0.0000 N   0  0  0  0  0  0  0  0  0  0  0  0
   31.2689  -14.9303    0.0000 C   0  0  0  0  0  0  0  0  0  0  0  0
   30.0754  -12.8338    0.0000 C   0  0  0  0  0  0  0  0  0  0  0  0
   31.3335  -16.3379    0.0000 Cl  0  0  0  0  0  0  0  0  0  0  0  0
   34.2300  -17.7100    0.0000 Cl  0  0  0  0  0  0  0  0  0  0  0  0
   24.1512  -19.0928    0.0000 N   0  0  0  0  0  0  0  0  0  0  0  0
   25.3914  -19.7915    0.0000 C   0  0  0  0  0  0  0  0  0  0  0  0
   22.9575  -19.7915    0.0000 C   0  0  0  0  0  0  0  0  0  0  0  0
   24.1512  -17.6779    0.0000 C   0  0  0  0  0  0  0  0  0  0  0  0
   25.3914  -21.1947    0.0000 C   0  0  0  0  0  0  0  0  0  0  0  0
   26.5851  -19.0928    0.0000 C   0  0  0  0  0  0  0  0  0  0  0  0
   22.9575  -21.1947    0.0000 C   0  0  0  0  0  0  0  0  0  0  0  0
   21.7580  -19.0928    0.0000 C   0  0  0  0  0  0  0  0  0  0  0  0
   25.3565  -16.9850    0.0000 C   0  0  0  0  0  0  0  0  0  0  0  0
   24.1512  -21.8934    0.0000 S   0  0  0  0  0  0  0  0  0  0  0  0
   26.5851  -21.8934    0.0000 C   0  0  0  0  0  0  0  0  0  0  0  0
   27.7904  -19.7915    0.0000 C   0  0  0  0  0  0  0  0  0  0  0  0
   21.7580  -21.8934    0.0000 C   0  0  0  0  0  0  0  0  0  0  0  0
   20.5179  -19.7915    0.0000 C   0  0  0  0  0  0  0  0  0  0  0  0
   25.3565  -15.6691    0.0000 N   0  0  0  0  0  0  0  0  0  0  0  0
   26.5442  -17.6779    0.0000 C   0  0  0  0  0  0  0  0  0  0  0  0
   27.7904  -21.1947    0.0000 C   0  0  0  0  0  0  0  0  0  0  0  0
   20.5179  -21.1947    0.0000 C   0  0  0  0  0  0  0  0  0  0  0  0
   24.0173  -14.8947    0.0000 C   0  0  0  0  0  0  0  0  0  0  0  0
   26.4919  -14.9296    0.0000 C   0  0  0  0  0  0  0  0  0  0  0  0
   30.1777  -19.5178    0.0000 Cl  0  0  0  0  0  0  0  0  0  0  0  0
   24.5688  -19.5768    0.0000 C   0  0  0  0  0  0  0  0  0  0  0  0
   25.7739  -18.8690    0.0000 C   0  0  0  0  0  0  0  0  0  0  0  0
   23.3288  -18.8924    0.0000 C   0  0  0  0  0  0  0  0  0  0  0  0
   24.5688  -20.9807    0.0000 C   0  0  0  0  0  0  0  0  0  0  0  0
   25.7679  -20.2728    0.0000 C   0  0  0  0  0  0  0  0  0  0  0  0
   26.9847  -19.5534    0.0000 C   0  0  0  0  0  0  0  0  0  0  0  0
   25.7562  -17.4653    0.0000 C   0  0  0  0  0  0  0  0  0  0  0  0
   22.1238  -19.5768    0.0000 N   0  0  0  0  0  0  0  0  0  0  0  0
   23.3288  -17.4770    0.0000 O   0  0  0  0  0  0  0  0  0  0  0  0
   23.3288  -21.6826    0.0000 N   0  0  0  0  0  0  0  0  0  0  0  0
   25.7621  -21.6826    0.0000 O   0  0  0  0  0  0  0  0  0  0  0  0
   27.1718  -20.2728    0.0000 C   0  0  0  0  0  0  0  0  0  0  0  0
   28.1895  -18.8457    0.0000 C   0  0  0  0  0  0  0  0  0  0  0  0
   26.9612  -16.7574    0.0000 C   0  0  0  0  0  0  0  0  0  0  0  0
   22.1238  -20.9807    0.0000 C   0  0  0  0  0  0  0  0  0  0  0  0
   28.1778  -17.4476    0.0000 C   0  0  0  0  0  0  0  0  0  0  0  0
   20.9130  -21.6766    0.0000 O   0  0  0  0  0  0  0  0  0  0  0  0
  1  2  2  0
  2  3  1  0
  3  4  2  0
  4  5  1  0
  5  6  2  0
  1  6  1  0
  4  7  1  0
  7  8  1  0
  8  9  2  0
  9 10  1  0
  5 10  1  0
  8 11  1  0
 11 12  2  0
 12 13  1  0
 13 14  2  0
  9 14  1  0
 10 15  1  0
 15 16  1  0
 16 17  1  0
 17 18  1  0
 18 19  1  0
 18 20  1  0
 13 21  1  0
 23 24  1  0
 23 25  1  0
 23 26  1  0
 24 27  2  0
 24 28  1  0
 25 29  2  0
 25 30  1  0
 26 31  1  0
 27 32  1  0
 27 33  1  0
 28 34  2  0
 29 35  1  0
 30 36  2  0
 31 37  1  0
 31 38  1  0
 33 39  2  0
 35 40  2  0
 37 41  1  0
 37 42  1  0
 29 32  1  0
 34 39  1  0
 36 40  1  0
 44 45  1  0
 44 46  1  0
 44 47  1  0
 44 48  1  0
 45 49  2  0
 45 50  1  0
 46 51  1  0
 46 52  2  0
 47 53  1  0
 47 54  2  0
 48 55  1  0
 49 56  1  0
 50 57  2  0
 51 58  1  0
 56 59  2  0
 58 60  2  0
 53 58  1  0
 57 59  1  0
M  END
