 
     RDKit          2D

 33 33  0  0  0  0  0  0  0  0999 V2000
   23.2602  -19.0646    0.0000 C   0  0  0  0  0  0  0  0  0  0  0  0
   24.4935  -19.7778    0.0000 N   0  0  0  0  0  0  0  0  0  0  0  0
   22.0325  -19.7836    0.0000 C   0  0  0  0  0  0  0  0  0  0  0  0
   23.2602  -17.6441    0.0000 C   0  0  0  0  0  0  0  0  0  0  0  0
   25.7213  -19.0587    0.0000 C   0  0  0  0  0  0  0  0  0  0  0  0
   20.8049  -19.0646    0.0000 C   0  0  0  0  0  0  0  0  0  0  0  0
   22.0384  -21.1983    0.0000 C   0  0  0  0  0  0  0  0  0  0  0  0
   22.0325  -16.9367    0.0000 C   0  0  0  0  0  0  0  0  0  0  0  0
   24.4818  -16.9367    0.0000 C   0  0  0  0  0  0  0  0  0  0  0  0
   26.9488  -19.7778    0.0000 C   0  0  0  0  0  0  0  0  0  0  0  0
   25.7096  -17.6332    0.0000 O   0  0  0  0  0  0  0  0  0  0  0  0
   20.8049  -17.6441    0.0000 C   0  0  0  0  0  0  0  0  0  0  0  0
   28.1823  -19.0587    0.0000 N   0  0  0  0  0  0  0  0  0  0  0  0
   29.4158  -19.7778    0.0000 C   0  0  0  0  0  0  0  0  0  0  0  0
   28.1823  -17.6441    0.0000 C   0  0  0  0  0  0  0  0  0  0  0  0
   30.6317  -19.0587    0.0000 C   0  0  0  0  0  0  0  0  0  0  0  0
   29.4158  -16.9309    0.0000 C   0  0  0  0  0  0  0  0  0  0  0  0
   19.9828  -18.3051    0.0000 C   0  0  0  0  0  0  0  0  0  0  0  0
   21.2173  -19.0214    0.0000 N   0  0  0  0  0  0  0  0  0  0  0  0
   18.7484  -19.0272    0.0000 C   0  0  0  0  0  0  0  0  0  0  0  0
   19.9828  -16.8786    0.0000 C   0  0  0  0  0  0  0  0  0  0  0  0
   22.4459  -18.2935    0.0000 C   0  0  0  0  0  0  0  0  0  0  0  0
   17.5198  -18.3051    0.0000 C   0  0  0  0  0  0  0  0  0  0  0  0
   18.7601  -20.4420    0.0000 C   0  0  0  0  0  0  0  0  0  0  0  0
   18.7484  -16.1683    0.0000 C   0  0  0  0  0  0  0  0  0  0  0  0
   23.6686  -19.0214    0.0000 C   0  0  0  0  0  0  0  0  0  0  0  0
   22.5042  -17.2164    0.0000 O   0  0  0  0  0  0  0  0  0  0  0  0
   17.5198  -16.8786    0.0000 C   0  0  0  0  0  0  0  0  0  0  0  0
   24.9029  -18.2935    0.0000 N   0  0  0  0  0  0  0  0  0  0  0  0
   23.6628  -20.4130    0.0000 C   0  0  0  0  0  0  0  0  0  0  0  0
   26.1432  -19.0214    0.0000 C   0  0  0  0  0  0  0  0  0  0  0  0
   27.3601  -18.2935    0.0000 C   0  0  0  0  0  0  0  0  0  0  0  0
   28.5770  -18.9806    0.0000 C   0  0  0  0  0  0  0  0  0  0  0  0
  1  2  1  0
  1  3  2  0
  1  4  1  0
  2  5  1  0
  3  6  1  0
  3  7  1  0
  4  8  2  0
  4  9  1  0
  5 10  1  0
  5 11  2  0
  6 12  2  0
 10 13  1  0
 13 14  1  0
 13 15  1  0
 14 16  1  0
 15 17  1  0
  8 12  1  0
 18 19  1  0
 18 20  2  0
 18 21  1  0
 19 22  1  0
 20 23  1  0
 20 24  1  0
 21 25  2  0
 22 26  1  0
 22 27  2  0
 23 28  2  0
 26 29  1  0
 26 30  1  0
 29 31  1  0
 31 32  1  0
 32 33  1  0
 25 28  1  0
M  END
