1255517-78-2.mol
     RDKit          2D

441467  0  0  1  0  0  0  0  0999 V2000
   -4.7156   -1.6594    0.0000 S   0  0  0  0  0  0  0  0  0  0  0  0
   -4.1051   -4.4443    0.0000 S   0  0  0  0  0  0  0  0  0  0  0  0
   -5.5421  -11.1296    0.0000 S   0  0  0  0  0  0  0  0  0  0  0  0
   -6.3409   -6.9472    0.0000 S   0  0  0  0  0  0  0  0  0  0  0  0
   -6.1940   -1.8579    0.0000 S   0  0  0  0  0  0  0  0  0  0  0  0
    9.7781   -2.9155    0.0000 S   0  0  0  0  0  0  0  0  0  0  0  0
    7.4494   -0.3595    0.0000 S   0  0  0  0  0  0  0  0  0  0  0  0
    2.9273    7.8196    0.0000 S   0  0  0  0  0  0  0  0  0  0  0  0
   -7.3979   12.9504    0.0000 S   0  0  0  0  0  0  0  0  0  0  0  0
   -7.7823    2.5845    0.0000 S   0  0  0  0  0  0  0  0  0  0  0  0
    9.3846   -6.3508    0.0000 S   0  0  0  0  0  0  0  0  0  0  0  0
    6.3850    7.8399    0.0000 S   0  0  0  0  0  0  0  0  0  0  0  0
    6.4220    3.2276    0.0000 S   0  0  0  0  0  0  0  0  0  0  0  0
   -2.8148   13.4694    0.0000 S   0  0  0  0  0  0  0  0  0  0  0  0
   -9.0837    4.6934    0.0000 S   0  0  0  0  0  0  0  0  0  0  0  0
    0.6377   10.4108    0.0000 S   0  0  0  0  0  0  0  0  0  0  0  0
  -10.0790    9.1972    0.0000 S   0  0  0  0  0  0  0  0  0  0  0  0
   -9.2667  -12.6058    0.0000 S   0  0  0  0  0  0  0  0  0  0  0  0
  -11.2073  -12.6428    0.0000 S   0  0  0  0  0  0  0  0  0  0  0  0
   10.0727   -8.7314    0.0000 S   0  0  0  0  0  0  0  0  0  0  0  0
   -4.2318   -2.3277    0.0000 P   0  0  0  0  0  0  0  0  0  0  0  0
   -3.4929   -4.9975    0.0000 P   0  0  0  0  0  0  0  0  0  0  0  0
   -6.0952  -11.7418    0.0000 P   0  0  0  0  0  0  0  0  0  0  0  0
   -6.3423   -7.7722    0.0000 P   0  0  0  0  0  0  0  0  0  0  0  0
   -6.8062   -1.3049    0.0000 P   0  0  0  0  0  0  0  0  0  0  0  0
    8.9578   -2.8278    0.0000 P   0  0  0  0  0  0  0  0  0  0  0  0
    8.0634    0.1915    0.0000 P   0  0  0  0  0  0  0  0  0  0  0  0
    2.9287    8.6446    0.0000 P   0  0  0  0  0  0  0  0  0  0  0  0
   -6.7858   12.3973    0.0000 P   0  0  0  0  0  0  0  0  0  0  0  0
   -6.9616    2.6694    0.0000 P   0  0  0  0  0  0  0  0  0  0  0  0
    9.9987   -5.7998    0.0000 P   0  0  0  0  0  0  0  0  0  0  0  0
    5.7709    7.2890    0.0000 P   0  0  0  0  0  0  0  0  0  0  0  0
    5.6017    3.3153    0.0000 P   0  0  0  0  0  0  0  0  0  0  0  0
   -2.8162   12.6444    0.0000 P   0  0  0  0  0  0  0  0  0  0  0  0
   -8.5976    5.3600    0.0000 P   0  0  0  0  0  0  0  0  0  0  0  0
    0.0236    9.8597    0.0000 P   0  0  0  0  0  0  0  0  0  0  0  0
   -9.2583    9.2820    0.0000 P   0  0  0  0  0  0  0  0  0  0  0  0
   -8.5530  -13.0196    0.0000 P   0  0  0  0  0  0  0  0  0  0  0  0
  -11.3775  -11.8355    0.0000 P   0  0  0  0  0  0  0  0  0  0  0  0
   10.8931   -8.8191    0.0000 P   0  0  0  0  0  0  0  0  0  0  0  0
   -6.3229   -3.7834    0.0000 O   0  0  0  0  0  0  0  0  0  0  0  0
   -1.8199   -3.0757    0.0000 O   0  0  0  0  0  0  0  0  0  0  0  0
   -6.3254  -14.2564    0.0000 O   0  0  0  0  0  0  0  0  0  0  0  0
   -7.9539   -9.9990    0.0000 O   0  0  0  0  0  0  0  0  0  0  0  0
   -3.7947   -7.7296    0.0000 O   0  0  0  0  0  0  0  0  0  0  0  0
    7.3131   -5.2141    0.0000 O   0  0  0  0  0  0  0  0  0  0  0  0
   10.7933   -0.7817    0.0000 O   0  0  0  0  0  0  0  0  0  0  0  0
    5.3778    0.7773    0.0000 O   0  0  0  0  0  0  0  0  0  0  0  0
    5.4786   10.0221    0.0000 O   0  0  0  0  0  0  0  0  0  0  0  0
    0.6963    7.0407    0.0000 O   0  0  0  0  0  0  0  0  0  0  0  0
   -5.0430   14.2559    0.0000 O   0  0  0  0  0  0  0  0  0  0  0  0
   -9.4734   11.8208    0.0000 O   0  0  0  0  0  0  0  0  0  0  0  0
   -5.1332    0.6169    0.0000 O   0  0  0  0  0  0  0  0  0  0  0  0
   -7.3593   -1.9170    0.0000 O   0  0  0  0  0  0  0  0  0  0  0  0
   -5.8489    5.3455    0.0000 O   0  0  0  0  0  0  0  0  0  0  0  0
   -3.5635   -1.8439    0.0000 O   0  0  0  0  0  0  0  0  0  0  0  0
   -5.4830  -12.2949    0.0000 O   0  0  0  0  0  0  0  0  0  0  0  0
   -4.0460   -5.6096    0.0000 O   0  0  0  0  0  0  0  0  0  0  0  0
   -6.3437   -8.5972    0.0000 O   0  0  0  0  0  0  0  0  0  0  0  0
    7.4372    5.3615    0.0000 O   0  0  0  0  0  0  0  0  0  0  0  0
   -0.2688   12.5930    0.0000 O   0  0  0  0  0  0  0  0  0  0  0  0
  -10.6283    6.8990    0.0000 O   0  0  0  0  0  0  0  0  0  0  0  0
    9.0455   -2.0074    0.0000 O   0  0  0  0  0  0  0  0  0  0  0  0
    9.4476   -5.1858    0.0000 O   0  0  0  0  0  0  0  0  0  0  0  0
    7.5125    0.8056    0.0000 O   0  0  0  0  0  0  0  0  0  0  0  0
    2.1036    8.6460    0.0000 O   0  0  0  0  0  0  0  0  0  0  0  0
   -7.3389   11.7851    0.0000 O   0  0  0  0  0  0  0  0  0  0  0  0
    5.2199    7.9030    0.0000 O   0  0  0  0  0  0  0  0  0  0  0  0
   -6.8768    1.8487    0.0000 O   0  0  0  0  0  0  0  0  0  0  0  0
   -3.6412   12.6458    0.0000 O   0  0  0  0  0  0  0  0  0  0  0  0
   -4.9000   -2.8114    0.0000 O   0  0  0  0  0  0  0  0  0  0  0  0
   -7.9310    4.8739    0.0000 O   0  0  0  0  0  0  0  0  0  0  0  0
  -11.0606  -13.3172    0.0000 O   0  0  0  0  0  0  0  0  0  0  0  0
    5.6893    4.1357    0.0000 O   0  0  0  0  0  0  0  0  0  0  0  0
   -2.9398   -4.3853    0.0000 O   0  0  0  0  0  0  0  0  0  0  0  0
   -6.7073  -11.1887    0.0000 O   0  0  0  0  0  0  0  0  0  0  0  0
   -0.5274   10.4738    0.0000 O   0  0  0  0  0  0  0  0  0  0  0  0
   -5.5172   -7.7737    0.0000 O   0  0  0  0  0  0  0  0  0  0  0  0
   -9.1735    8.4613    0.0000 O   0  0  0  0  0  0  0  0  0  0  0  0
    8.8702   -3.6482    0.0000 O   0  0  0  0  0  0  0  0  0  0  0  0
   12.7286   -6.7730    0.0000 O   0  0  0  0  0  0  0  0  0  0  0  0
    8.6145   -0.4226    0.0000 O   0  0  0  0  0  0  0  0  0  0  0  0
   -6.2531   -0.6927    0.0000 O   0  0  0  0  0  0  0  0  0  0  0  0
   -8.9667  -13.7334    0.0000 O   0  0  0  0  0  0  0  0  0  0  0  0
   -7.8392  -13.4333    0.0000 O   0  0  0  0  0  0  0  0  0  0  0  0
    5.5140    2.4949    0.0000 O   0  0  0  0  0  0  0  0  0  0  0  0
    3.7537    8.6432    0.0000 O   0  0  0  0  0  0  0  0  0  0  0  0
   -6.2326   13.0094    0.0000 O   0  0  0  0  0  0  0  0  0  0  0  0
   -7.0464    3.4900    0.0000 O   0  0  0  0  0  0  0  0  0  0  0  0
    0.5745    9.2457    0.0000 O   0  0  0  0  0  0  0  0  0  0  0  0
   -9.3431   10.1026    0.0000 O   0  0  0  0  0  0  0  0  0  0  0  0
    6.3219    6.6749    0.0000 O   0  0  0  0  0  0  0  0  0  0  0  0
   -1.9912   12.6430    0.0000 O   0  0  0  0  0  0  0  0  0  0  0  0
   -9.2642    5.8461    0.0000 O   0  0  0  0  0  0  0  0  0  0  0  0
   10.5496   -6.4139    0.0000 O   0  0  0  0  0  0  0  0  0  0  0  0
   10.9807   -7.9987    0.0000 O   0  0  0  0  0  0  0  0  0  0  0  0
  -13.8907  -10.7221    0.0000 O   0  0  0  0  0  0  0  0  0  0  0  0
  -10.5702  -11.6654    0.0000 O   0  0  0  0  0  0  0  0  0  0  0  0
  -12.1848  -12.0057    0.0000 O   0  0  0  0  0  0  0  0  0  0  0  0
   10.6692  -11.3572    0.0000 O   0  0  0  0  0  0  0  0  0  0  0  0
   -3.7480   -2.9960    0.0000 O   0  0  0  0  0  0  0  0  0  0  0  0
   -2.8807   -5.5506    0.0000 O   0  0  0  0  0  0  0  0  0  0  0  0
   -6.6483  -12.3539    0.0000 O   0  0  0  0  0  0  0  0  0  0  0  0
   -7.1673   -7.7708    0.0000 O   0  0  0  0  0  0  0  0  0  0  0  0
   -7.4183   -0.7518    0.0000 O   0  0  0  0  0  0  0  0  0  0  0  0
    8.1375   -2.7401    0.0000 O   0  0  0  0  0  0  0  0  0  0  0  0
    8.6775    0.7425    0.0000 O   0  0  0  0  0  0  0  0  0  0  0  0
   10.8054   -9.6395    0.0000 O   0  0  0  0  0  0  0  0  0  0  0  0
    2.9301    9.4696    0.0000 O   0  0  0  0  0  0  0  0  0  0  0  0
   -6.1736   11.8442    0.0000 O   0  0  0  0  0  0  0  0  0  0  0  0
   -6.1410    2.7542    0.0000 O   0  0  0  0  0  0  0  0  0  0  0  0
   10.6127   -5.2488    0.0000 O   0  0  0  0  0  0  0  0  0  0  0  0
    5.1568    6.7379    0.0000 O   0  0  0  0  0  0  0  0  0  0  0  0
    4.7813    3.4030    0.0000 O   0  0  0  0  0  0  0  0  0  0  0  0
   -2.8176   11.8193    0.0000 O   0  0  0  0  0  0  0  0  0  0  0  0
   -8.1115    6.0266    0.0000 O   0  0  0  0  0  0  0  0  0  0  0  0
   -0.5905    9.3088    0.0000 O   0  0  0  0  0  0  0  0  0  0  0  0
   -8.4377    9.3668    0.0000 O   0  0  0  0  0  0  0  0  0  0  0  0
   -8.1392  -12.3059    0.0000 O   0  0  0  0  0  0  0  0  0  0  0  0
   -0.3811   -3.5507    0.0000 O   0  0  0  0  0  0  0  0  0  0  0  0
   -9.0337   -7.7752    0.0000 O   0  0  0  0  0  0  0  0  0  0  0  0
   -3.1849   -9.1167    0.0000 O   0  0  0  0  0  0  0  0  0  0  0  0
   12.2338   -0.3116    0.0000 O   0  0  0  0  0  0  0  0  0  0  0  0
   12.8038  -11.3289    0.0000 O   0  0  0  0  0  0  0  0  0  0  0  0
    3.9345    0.3158    0.0000 O   0  0  0  0  0  0  0  0  0  0  0  0
    6.0931   11.4072    0.0000 O   0  0  0  0  0  0  0  0  0  0  0  0
    2.9163    5.9533    0.0000 O   0  0  0  0  0  0  0  0  0  0  0  0
   -5.6610   15.6394    0.0000 O   0  0  0  0  0  0  0  0  0  0  0  0
   -8.7879   14.1959    0.0000 O   0  0  0  0  0  0  0  0  0  0  0  0
   -7.0057    7.5301    0.0000 O   0  0  0  0  0  0  0  0  0  0  0  0
  -14.7952  -12.1888    0.0000 O   0  0  0  0  0  0  0  0  0  0  0  0
   -4.2837    2.9384    0.0000 O   0  0  0  0  0  0  0  0  0  0  0  0
  -11.5477  -11.0282    0.0000 O   0  0  0  0  0  0  0  0  0  0  0  0
    8.8777    5.8315    0.0000 O   0  0  0  0  0  0  0  0  0  0  0  0
    0.3458   13.9779    0.0000 O   0  0  0  0  0  0  0  0  0  0  0  0
  -11.9346    8.9977    0.0000 O   0  0  0  0  0  0  0  0  0  0  0  0
   11.7134   -8.9068    0.0000 O   0  0  0  0  0  0  0  0  0  0  0  0
    1.7462   -1.6420    0.0000 O   0  0  0  0  0  0  0  0  0  0  0  0
  -12.5683  -13.4686    0.0000 O   0  0  0  0  0  0  0  0  0  0  0  0
  -11.6465   -8.9332    0.0000 O   0  0  0  0  0  0  0  0  0  0  0  0
   -0.3431   -9.4203    0.0000 O   0  0  0  0  0  0  0  0  0  0  0  0
   -8.8594   -7.1351    0.0000 O   0  0  0  0  0  0  0  0  0  0  0  0
   14.3544   -2.2276    0.0000 O   0  0  0  0  0  0  0  0  0  0  0  0
   -4.7472  -17.9037    0.0000 O   0  0  0  0  0  0  0  0  0  0  0  0
   13.5700   -9.0974    0.0000 O   0  0  0  0  0  0  0  0  0  0  0  0
    3.3355   -2.4786    0.0000 O   0  0  0  0  0  0  0  0  0  0  0  0
    5.6652   -9.0809    0.0000 O   0  0  0  0  0  0  0  0  0  0  0  0
    8.9359   11.7009    0.0000 O   0  0  0  0  0  0  0  0  0  0  0  0
    1.7494    3.3444    0.0000 O   0  0  0  0  0  0  0  0  0  0  0  0
   -3.9772   17.9487    0.0000 O   0  0  0  0  0  0  0  0  0  0  0  0
  -11.5044   15.0838    0.0000 O   0  0  0  0  0  0  0  0  0  0  0  0
   -4.5281    8.9548    0.0000 O   0  0  0  0  0  0  0  0  0  0  0  0
  -14.3339   -6.7728    0.0000 O   0  0  0  0  0  0  0  0  0  0  0  0
    9.0214  -15.2240    0.0000 O   0  0  0  0  0  0  0  0  0  0  0  0
   -7.3643   -4.8212    0.0000 N   0  0  0  0  0  0  0  0  0  0  0  0
   -5.1844  -15.1837    0.0000 N   0  0  0  0  0  0  0  0  0  0  0  0
   -0.6758   -2.1525    0.0000 N   0  0  0  0  0  0  0  0  0  0  0  0
    6.9301   -6.6335    0.0000 N   0  0  0  0  0  0  0  0  0  0  0  0
   -9.1855   -9.1961    0.0000 N   0  0  0  0  0  0  0  0  0  0  0  0
   -2.3430   -7.9621    0.0000 N   0  0  0  0  0  0  0  0  0  0  0  0
   11.9343   -1.7089    0.0000 N   0  0  0  0  0  0  0  0  0  0  0  0
    4.9948   -0.6422    0.0000 N   0  0  0  0  0  0  0  0  0  0  0  0
    6.9310   10.2497    0.0000 N   0  0  0  0  0  0  0  0  0  0  0  0
    1.4949    5.8063    0.0000 N   0  0  0  0  0  0  0  0  0  0  0  0
   -4.2401   15.4875    0.0000 N   0  0  0  0  0  0  0  0  0  0  0  0
   -9.8515   13.2416    0.0000 N   0  0  0  0  0  0  0  0  0  0  0  0
   -5.7694    6.8135    0.0000 N   0  0  0  0  0  0  0  0  0  0  0  0
   -3.9891    1.5401    0.0000 N   0  0  0  0  0  0  0  0  0  0  0  0
    8.5782    4.4342    0.0000 N   0  0  0  0  0  0  0  0  0  0  0  0
    1.1837   12.8204    0.0000 N   0  0  0  0  0  0  0  0  0  0  0  0
  -11.9371    7.5687    0.0000 N   0  0  0  0  0  0  0  0  0  0  0  0
  -11.7303  -14.6261    0.0000 N   0  0  0  0  0  0  0  0  0  0  0  0
   13.8695   -7.7002    0.0000 N   0  0  0  0  0  0  0  0  0  0  0  0
   -7.3643   -6.1490    0.0000 N   0  0  0  0  0  0  0  0  0  0  0  0
  -13.3615   -9.3505    0.0000 N   0  0  0  0  0  0  0  0  0  0  0  0
   -4.2960  -16.1705    0.0000 N   0  0  0  0  0  0  0  0  0  0  0  0
    5.7779   -7.2934    0.0000 N   0  0  0  0  0  0  0  0  0  0  0  0
    0.6825   -2.5964    0.0000 N   0  0  0  0  0  0  0  0  0  0  0  0
  -10.3401   -8.3542    0.0000 N   0  0  0  0  0  0  0  0  0  0  0  0
   -1.7641   -9.2685    0.0000 N   0  0  0  0  0  0  0  0  0  0  0  0
   -8.8594   -4.6600    0.0000 N   0  0  0  0  0  0  0  0  0  0  0  0
   13.2941   -1.2696    0.0000 N   0  0  0  0  0  0  0  0  0  0  0  0
   -6.4033  -16.0644    0.0000 N   0  0  0  0  0  0  0  0  0  0  0  0
    3.6350   -1.0814    0.0000 N   0  0  0  0  0  0  0  0  0  0  0  0
    7.8130   -7.8508    0.0000 N   0  0  0  0  0  0  0  0  0  0  0  0
    7.5145   11.5540    0.0000 N   0  0  0  0  0  0  0  0  0  0  0  0
    2.3328    4.6488    0.0000 N   0  0  0  0  0  0  0  0  0  0  0  0
   -4.8191   16.7940    0.0000 N   0  0  0  0  0  0  0  0  0  0  0  0
  -10.1461   14.6398    0.0000 N   0  0  0  0  0  0  0  0  0  0  0  0
   -5.7669    8.2425    0.0000 N   0  0  0  0  0  0  0  0  0  0  0  0
   10.2862  -12.7766    0.0000 N   0  0  0  0  0  0  0  0  0  0  0  0
   -9.5740   -5.8976    0.0000 N   0  0  0  0  0  0  0  0  0  0  0  0
   -2.9254    2.4945    0.0000 N   0  0  0  0  0  0  0  0  0  0  0  0
   -6.1062  -17.4622    0.0000 N   0  0  0  0  0  0  0  0  0  0  0  0
    7.0942   -9.0859    0.0000 N   0  0  0  0  0  0  0  0  0  0  0  0
    9.9380    4.8735    0.0000 N   0  0  0  0  0  0  0  0  0  0  0  0
    1.7672   14.1249    0.0000 N   0  0  0  0  0  0  0  0  0  0  0  0
  -13.1734    8.2854    0.0000 N   0  0  0  0  0  0  0  0  0  0  0  0
  -13.1517  -14.7730    0.0000 N   0  0  0  0  0  0  0  0  0  0  0  0
   14.9298   -8.6582    0.0000 N   0  0  0  0  0  0  0  0  0  0  0  0
  -13.0809   -8.0526    0.0000 N   0  0  0  0  0  0  0  0  0  0  0  0
  -14.8568   -9.1921    0.0000 N   0  0  0  0  0  0  0  0  0  0  0  0
  -10.2884   -4.6600    0.0000 N   0  0  0  0  0  0  0  0  0  0  0  0
   -7.4653  -17.0206    0.0000 N   0  0  0  0  0  0  0  0  0  0  0  0
    8.5231   -9.0908    0.0000 N   0  0  0  0  0  0  0  0  0  0  0  0
   -1.5672    2.0506    0.0000 N   0  0  0  0  0  0  0  0  0  0  0  0
    9.1340  -13.4365    0.0000 N   0  0  0  0  0  0  0  0  0  0  0  0
   10.9983    3.9155    0.0000 N   0  0  0  0  0  0  0  0  0  0  0  0
    3.1885   14.2718    0.0000 N   0  0  0  0  0  0  0  0  0  0  0  0
  -14.4121    7.5730    0.0000 N   0  0  0  0  0  0  0  0  0  0  0  0
   11.1691  -13.9939    0.0000 N   0  0  0  0  0  0  0  0  0  0  0  0
  -15.2937   -7.8315    0.0000 N   0  0  0  0  0  0  0  0  0  0  0  0
  -13.7352  -16.0774    0.0000 N   0  0  0  0  0  0  0  0  0  0  0  0
   16.2896   -8.2189    0.0000 N   0  0  0  0  0  0  0  0  0  0  0  0
   10.4503  -15.2290    0.0000 N   0  0  0  0  0  0  0  0  0  0  0  0
  -16.2536   -8.8901    0.0000 N   0  0  0  0  0  0  0  0  0  0  0  0
   11.8793  -15.2339    0.0000 N   0  0  0  0  0  0  0  0  0  0  0  0
   -7.1057   -2.7021    0.0000 C   0  0  0  0  0  0  0  0  0  0  0  0
   -6.3215   -2.9584    0.0000 C   0  0  0  0  0  0  0  0  0  0  0  0
   -2.8104   -2.1808    0.0000 C   0  0  0  0  0  0  0  0  0  0  0  0
   -7.5918   -3.3686    0.0000 C   0  0  0  0  0  0  0  0  0  0  0  0
   -5.6559  -13.1016    0.0000 C   0  0  0  0  0  0  0  0  0  0  0  0
   -7.0589   -9.0085    0.0000 C   0  0  0  0  0  0  0  0  0  0  0  0
   -3.7924   -6.3947    0.0000 C   0  0  0  0  0  0  0  0  0  0  0  0
   -2.6402   -2.9881    0.0000 C   0  0  0  0  0  0  0  0  0  0  0  0
   -7.1080   -4.0370    0.0000 C   0  0  0  0  0  0  0  0  0  0  0  0
   -7.1466   -9.8289    0.0000 C   0  0  0  0  0  0  0  0  0  0  0  0
   -6.4102  -13.4358    0.0000 C   0  0  0  0  0  0  0  0  0  0  0  0
   -4.2785   -7.0613    0.0000 C   0  0  0  0  0  0  0  0  0  0  0  0
    8.6404   -5.3559    0.0000 C   0  0  0  0  0  0  0  0  0  0  0  0
    9.7998   -1.6731    0.0000 C   0  0  0  0  0  0  0  0  0  0  0  0
   -2.0951   -1.7695    0.0000 C   0  0  0  0  0  0  0  0  0  0  0  0
   -5.1050  -13.7156    0.0000 C   0  0  0  0  0  0  0  0  0  0  0  0
    8.0283   -4.8028    0.0000 C   0  0  0  0  0  0  0  0  0  0  0  0
    9.9727   -0.8665    0.0000 C   0  0  0  0  0  0  0  0  0  0  0  0
   -7.8120   -8.6716    0.0000 C   0  0  0  0  0  0  0  0  0  0  0  0
   -3.0082   -6.6510    0.0000 C   0  0  0  0  0  0  0  0  0  0  0  0
   -5.5187  -14.4294    0.0000 C   0  0  0  0  0  0  0  0  0  0  0  0
   -1.4831   -2.3226    0.0000 C   0  0  0  0  0  0  0  0  0  0  0  0
    8.3035   -6.1090    0.0000 C   0  0  0  0  0  0  0  0  0  0  0  0
    6.7052    0.6354    0.0000 C   0  0  0  0  0  0  0  0  0  0  0  0
   -8.3651   -9.2838    0.0000 C   0  0  0  0  0  0  0  0  0  0  0  0
   -3.0096   -7.4760    0.0000 C   0  0  0  0  0  0  0  0  0  0  0  0
   10.5136   -2.0870    0.0000 C   0  0  0  0  0  0  0  0  0  0  0  0
    7.4832   -6.0213    0.0000 C   0  0  0  0  0  0  0  0  0  0  0  0
    6.0930    1.1885    0.0000 C   0  0  0  0  0  0  0  0  0  0  0  0
    5.4762    8.6872    0.0000 C   0  0  0  0  0  0  0  0  0  0  0  0
    1.6899    7.9322    0.0000 C   0  0  0  0  0  0  0  0  0  0  0  0
   11.1276   -1.5359    0.0000 C   0  0  0  0  0  0  0  0  0  0  0  0
   -4.0525   13.3611    0.0000 C   0  0  0  0  0  0  0  0  0  0  0  0
   -8.1456   11.9581    0.0000 C   0  0  0  0  0  0  0  0  0  0  0  0
   -6.1236    1.5119    0.0000 C   0  0  0  0  0  0  0  0  0  0  0  0
   -7.1767    5.2082    0.0000 C   0  0  0  0  0  0  0  0  0  0  0  0
    4.9925    9.3555    0.0000 C   0  0  0  0  0  0  0  0  0  0  0  0
   -5.9535    0.7046    0.0000 C   0  0  0  0  0  0  0  0  0  0  0  0
    6.3683   -0.1176    0.0000 C   0  0  0  0  0  0  0  0  0  0  0  0
   -4.8728   13.4487    0.0000 C   0  0  0  0  0  0  0  0  0  0  0  0
    0.8692    7.8474    0.0000 C   0  0  0  0  0  0  0  0  0  0  0  0
   -8.7597   11.4071    0.0000 C   0  0  0  0  0  0  0  0  0  0  0  0
   -6.4630    4.7944    0.0000 C   0  0  0  0  0  0  0  0  0  0  0  0
    5.5479   -0.0300    0.0000 C   0  0  0  0  0  0  0  0  0  0  0  0
    6.2613    8.9408    0.0000 C   0  0  0  0  0  0  0  0  0  0  0  0
    6.4437    4.4700    0.0000 C   0  0  0  0  0  0  0  0  0  0  0  0
    2.0241    7.1780    0.0000 C   0  0  0  0  0  0  0  0  0  0  0  0
   -3.7156   14.1141    0.0000 C   0  0  0  0  0  0  0  0  0  0  0  0
   -8.4798   12.7123    0.0000 C   0  0  0  0  0  0  0  0  0  0  0  0
   -0.2711   11.2581    0.0000 C   0  0  0  0  0  0  0  0  0  0  0  0
   -5.4085    1.9231    0.0000 C   0  0  0  0  0  0  0  0  0  0  0  0
   -7.0038    6.0149    0.0000 C   0  0  0  0  0  0  0  0  0  0  0  0
   -9.8418    7.9775    0.0000 C   0  0  0  0  0  0  0  0  0  0  0  0
    6.6166    5.2767    0.0000 C   0  0  0  0  0  0  0  0  0  0  0  0
    6.2627    9.7659    0.0000 C   0  0  0  0  0  0  0  0  0  0  0  0
    1.4100    6.6270    0.0000 C   0  0  0  0  0  0  0  0  0  0  0  0
   -4.3278   14.6672    0.0000 C   0  0  0  0  0  0  0  0  0  0  0  0
   -9.3005   12.6275    0.0000 C   0  0  0  0  0  0  0  0  0  0  0  0
   -0.7549   11.9263    0.0000 C   0  0  0  0  0  0  0  0  0  0  0  0
   -6.1831    6.0997    0.0000 C   0  0  0  0  0  0  0  0  0  0  0  0
   -9.8432    7.1525    0.0000 C   0  0  0  0  0  0  0  0  0  0  0  0
   -4.7963    1.3700    0.0000 C   0  0  0  0  0  0  0  0  0  0  0  0
   -5.6532   -2.4746    0.0000 C   0  0  0  0  0  0  0  0  0  0  0  0
    7.1574    4.0562    0.0000 C   0  0  0  0  0  0  0  0  0  0  0  0
    0.5140   11.5116    0.0000 C   0  0  0  0  0  0  0  0  0  0  0  0
  -10.6259    8.2339    0.0000 C   0  0  0  0  0  0  0  0  0  0  0  0
   -3.1933   -3.6002    0.0000 C   0  0  0  0  0  0  0  0  0  0  0  0
    7.7715    4.6072    0.0000 C   0  0  0  0  0  0  0  0  0  0  0  0
   -6.5344  -10.3820    0.0000 C   0  0  0  0  0  0  0  0  0  0  0  0
   -5.1035   -7.0599    0.0000 C   0  0  0  0  0  0  0  0  0  0  0  0
    0.5154   12.3366    0.0000 C   0  0  0  0  0  0  0  0  0  0  0  0
  -11.1120    7.5673    0.0000 C   0  0  0  0  0  0  0  0  0  0  0  0
   -9.7918  -13.7320    0.0000 C   0  0  0  0  0  0  0  0  0  0  0  0
   -7.1240  -13.0221    0.0000 C   0  0  0  0  0  0  0  0  0  0  0  0
    8.1159   -3.9824    0.0000 C   0  0  0  0  0  0  0  0  0  0  0  0
    9.4217   -0.2525    0.0000 C   0  0  0  0  0  0  0  0  0  0  0  0
  -10.2756  -13.0636    0.0000 C   0  0  0  0  0  0  0  0  0  0  0  0
  -10.2779  -14.3986    0.0000 C   0  0  0  0  0  0  0  0  0  0  0  0
    6.1806    2.0089    0.0000 C   0  0  0  0  0  0  0  0  0  0  0  0
   -6.5066    0.0924    0.0000 C   0  0  0  0  0  0  0  0  0  0  0  0
   11.7350   -7.6645    0.0000 C   0  0  0  0  0  0  0  0  0  0  0  0
   11.9079   -6.8578    0.0000 C   0  0  0  0  0  0  0  0  0  0  0  0
    4.1674    9.3570    0.0000 C   0  0  0  0  0  0  0  0  0  0  0  0
   -5.4260   12.8365    0.0000 C   0  0  0  0  0  0  0  0  0  0  0  0
  -11.0621  -14.1423    0.0000 C   0  0  0  0  0  0  0  0  0  0  0  0
    0.3182    8.4615    0.0000 C   0  0  0  0  0  0  0  0  0  0  0  0
   -8.6748   10.5864    0.0000 C   0  0  0  0  0  0  0  0  0  0  0  0
   -6.3782    3.9738    0.0000 C   0  0  0  0  0  0  0  0  0  0  0  0
    6.0656    5.8907    0.0000 C   0  0  0  0  0  0  0  0  0  0  0  0
   12.4487   -8.0783    0.0000 C   0  0  0  0  0  0  0  0  0  0  0  0
   -1.5799   11.9277    0.0000 C   0  0  0  0  0  0  0  0  0  0  0  0
   -9.1765    6.6664    0.0000 C   0  0  0  0  0  0  0  0  0  0  0  0
   13.0628   -7.5272    0.0000 C   0  0  0  0  0  0  0  0  0  0  0  0
   11.3569   -6.2438    0.0000 C   0  0  0  0  0  0  0  0  0  0  0  0
  -10.0192  -12.2795    0.0000 C   0  0  0  0  0  0  0  0  0  0  0  0
   -8.1449   -5.0726    0.0000 C   0  0  0  0  0  0  0  0  0  0  0  0
  -12.7358  -11.3916    0.0000 C   0  0  0  0  0  0  0  0  0  0  0  0
   -5.5964  -15.8929    0.0000 C   0  0  0  0  0  0  0  0  0  0  0  0
    7.0999   -7.4358    0.0000 C   0  0  0  0  0  0  0  0  0  0  0  0
  -12.5628  -10.5849    0.0000 C   0  0  0  0  0  0  0  0  0  0  0  0
   -6.8828   -5.4851    0.0000 C   0  0  0  0  0  0  0  0  0  0  0  0
  -13.5564  -11.4765    0.0000 C   0  0  0  0  0  0  0  0  0  0  0  0
  -13.2766  -10.1712    0.0000 C   0  0  0  0  0  0  0  0  0  0  0  0
   -4.3824  -15.3549    0.0000 C   0  0  0  0  0  0  0  0  0  0  0  0
   -0.4194   -1.3683    0.0000 C   0  0  0  0  0  0  0  0  0  0  0  0
   -9.6716   -9.8627    0.0000 C   0  0  0  0  0  0  0  0  0  0  0  0
   -1.5887   -7.6278    0.0000 C   0  0  0  0  0  0  0  0  0  0  0  0
   -0.1247   -2.7665    0.0000 C   0  0  0  0  0  0  0  0  0  0  0  0
    6.1146   -6.5456    0.0000 C   0  0  0  0  0  0  0  0  0  0  0  0
   -9.5198   -8.4419    0.0000 C   0  0  0  0  0  0  0  0  0  0  0  0
   -2.4307   -8.7824    0.0000 C   0  0  0  0  0  0  0  0  0  0  0  0
   12.1879   -2.4940    0.0000 C   0  0  0  0  0  0  0  0  0  0  0  0
   12.4874   -1.0967    0.0000 C   0  0  0  0  0  0  0  0  0  0  0  0
   -8.1449   -5.8976    0.0000 C   0  0  0  0  0  0  0  0  0  0  0  0
    5.2485   -1.4273    0.0000 C   0  0  0  0  0  0  0  0  0  0  0  0
    4.1881   -0.4693    0.0000 C   0  0  0  0  0  0  0  0  0  0  0  0
   -5.0443  -16.5059    0.0000 C   0  0  0  0  0  0  0  0  0  0  0  0
    7.6842    9.9127    0.0000 C   0  0  0  0  0  0  0  0  0  0  0  0
    0.8266    5.3225    0.0000 C   0  0  0  0  0  0  0  0  0  0  0  0
   -3.4859   15.8218    0.0000 C   0  0  0  0  0  0  0  0  0  0  0  0
  -10.6588   13.0715    0.0000 C   0  0  0  0  0  0  0  0  0  0  0  0
   -4.9444    6.8120    0.0000 C   0  0  0  0  0  0  0  0  0  0  0  0
    6.8462   11.0703    0.0000 C   0  0  0  0  0  0  0  0  0  0  0  0
    2.2480    5.4695    0.0000 C   0  0  0  0  0  0  0  0  0  0  0  0
   -4.9067   15.9736    0.0000 C   0  0  0  0  0  0  0  0  0  0  0  0
    6.3840   -7.8459    0.0000 C   0  0  0  0  0  0  0  0  0  0  0  0
   -9.5952   14.0258    0.0000 C   0  0  0  0  0  0  0  0  0  0  0  0
   11.3844  -10.9459    0.0000 C   0  0  0  0  0  0  0  0  0  0  0  0
   -6.1806    7.5286    0.0000 C   0  0  0  0  0  0  0  0  0  0  0  0
   11.9966  -11.4990    0.0000 C   0  0  0  0  0  0  0  0  0  0  0  0
   -3.4380    0.9261    0.0000 C   0  0  0  0  0  0  0  0  0  0  0  0
   11.6596  -12.2521    0.0000 C   0  0  0  0  0  0  0  0  0  0  0  0
   10.8393  -12.1644    0.0000 C   0  0  0  0  0  0  0  0  0  0  0  0
    0.3878   -1.1981    0.0000 C   0  0  0  0  0  0  0  0  0  0  0  0
   -3.7327    2.3243    0.0000 C   0  0  0  0  0  0  0  0  0  0  0  0
  -10.4919   -9.7751    0.0000 C   0  0  0  0  0  0  0  0  0  0  0  0
   -0.9221   -8.1139    0.0000 C   0  0  0  0  0  0  0  0  0  0  0  0
    8.8318    3.6492    0.0000 C   0  0  0  0  0  0  0  0  0  0  0  0
    1.9368   12.4836    0.0000 C   0  0  0  0  0  0  0  0  0  0  0  0
   12.9946   -2.6669    0.0000 C   0  0  0  0  0  0  0  0  0  0  0  0
  -13.9702  -12.1902    0.0000 C   0  0  0  0  0  0  0  0  0  0  0  0
  -12.3508    6.8549    0.0000 C   0  0  0  0  0  0  0  0  0  0  0  0
    9.1313    5.0464    0.0000 C   0  0  0  0  0  0  0  0  0  0  0  0
    1.0988   13.6411    0.0000 C   0  0  0  0  0  0  0  0  0  0  0  0
  -12.3483    8.2839    0.0000 C   0  0  0  0  0  0  0  0  0  0  0  0
    4.6953   -2.0395    0.0000 C   0  0  0  0  0  0  0  0  0  0  0  0
   11.4720  -10.1256    0.0000 C   0  0  0  0  0  0  0  0  0  0  0  0
    8.3524   10.3965    0.0000 C   0  0  0  0  0  0  0  0  0  0  0  0
    0.9114    4.5019    0.0000 C   0  0  0  0  0  0  0  0  0  0  0  0
   -3.3982   16.6422    0.0000 C   0  0  0  0  0  0  0  0  0  0  0  0
  -11.2097   13.6855    0.0000 C   0  0  0  0  0  0  0  0  0  0  0  0
   -4.5306    7.5258    0.0000 C   0  0  0  0  0  0  0  0  0  0  0  0
  -11.6455  -15.4467    0.0000 C   0  0  0  0  0  0  0  0  0  0  0  0
    0.9389   -1.8122    0.0000 C   0  0  0  0  0  0  0  0  0  0  0  0
  -12.4835  -14.2892    0.0000 C   0  0  0  0  0  0  0  0  0  0  0  0
  -10.8262   -9.0208    0.0000 C   0  0  0  0  0  0  0  0  0  0  0  0
   -1.0097   -8.9342    0.0000 C   0  0  0  0  0  0  0  0  0  0  0  0
   -8.8594   -6.3101    0.0000 C   0  0  0  0  0  0  0  0  0  0  0  0
   13.5477   -2.0547    0.0000 C   0  0  0  0  0  0  0  0  0  0  0  0
   14.4226   -7.0880    0.0000 C   0  0  0  0  0  0  0  0  0  0  0  0
   -5.2993  -17.2906    0.0000 C   0  0  0  0  0  0  0  0  0  0  0  0
   14.1231   -8.4853    0.0000 C   0  0  0  0  0  0  0  0  0  0  0  0
    3.8887   -1.8665    0.0000 C   0  0  0  0  0  0  0  0  0  0  0  0
    6.3811   -8.6709    0.0000 C   0  0  0  0  0  0  0  0  0  0  0  0
    8.2676   11.2172    0.0000 C   0  0  0  0  0  0  0  0  0  0  0  0
    1.6646    4.1650    0.0000 C   0  0  0  0  0  0  0  0  0  0  0  0
   -4.0648   17.1283    0.0000 C   0  0  0  0  0  0  0  0  0  0  0  0
  -10.9534   14.4697    0.0000 C   0  0  0  0  0  0  0  0  0  0  0  0
   -2.6307    1.0962    0.0000 C   0  0  0  0  0  0  0  0  0  0  0  0
   -4.9419    8.2410    0.0000 C   0  0  0  0  0  0  0  0  0  0  0  0
   -9.5740   -5.0726    0.0000 C   0  0  0  0  0  0  0  0  0  0  0  0
  -14.0713   -8.9398    0.0000 C   0  0  0  0  0  0  0  0  0  0  0  0
    9.6385    3.4762    0.0000 C   0  0  0  0  0  0  0  0  0  0  0  0
    0.6442   -0.4139    0.0000 C   0  0  0  0  0  0  0  0  0  0  0  0
    2.6051   12.9674    0.0000 C   0  0  0  0  0  0  0  0  0  0  0  0
  -10.9780  -10.4417    0.0000 C   0  0  0  0  0  0  0  0  0  0  0  0
  -13.1758    6.8563    0.0000 C   0  0  0  0  0  0  0  0  0  0  0  0
   -0.1678   -7.7796    0.0000 C   0  0  0  0  0  0  0  0  0  0  0  0
   -6.6583  -16.8491    0.0000 C   0  0  0  0  0  0  0  0  0  0  0  0
   13.2482   -3.4520    0.0000 C   0  0  0  0  0  0  0  0  0  0  0  0
    7.8101   -8.6758    0.0000 C   0  0  0  0  0  0  0  0  0  0  0  0
  -12.7505   -8.8033    0.0000 C   0  0  0  0  0  0  0  0  0  0  0  0
   -2.3745    1.8804    0.0000 C   0  0  0  0  0  0  0  0  0  0  0  0
    4.9489   -2.8245    0.0000 C   0  0  0  0  0  0  0  0  0  0  0  0
  -12.3138  -15.9305    0.0000 C   0  0  0  0  0  0  0  0  0  0  0  0
    9.1055   10.0596    0.0000 C   0  0  0  0  0  0  0  0  0  0  0  0
    0.2431    4.0182    0.0000 C   0  0  0  0  0  0  0  0  0  0  0  0
   -2.6439   16.9765    0.0000 C   0  0  0  0  0  0  0  0  0  0  0  0
  -12.0170   13.5154    0.0000 C   0  0  0  0  0  0  0  0  0  0  0  0
   10.1916    4.0884    0.0000 C   0  0  0  0  0  0  0  0  0  0  0  0
   -3.7056    7.5244    0.0000 C   0  0  0  0  0  0  0  0  0  0  0  0
    2.5203   13.7880    0.0000 C   0  0  0  0  0  0  0  0  0  0  0  0
  -13.5871    7.5715    0.0000 C   0  0  0  0  0  0  0  0  0  0  0  0
  -13.8970   -8.1335    0.0000 C   0  0  0  0  0  0  0  0  0  0  0  0
   15.2293   -7.2609    0.0000 C   0  0  0  0  0  0  0  0  0  0  0  0
   10.4560  -13.5789    0.0000 C   0  0  0  0  0  0  0  0  0  0  0  0
  -13.0669  -15.5936    0.0000 C   0  0  0  0  0  0  0  0  0  0  0  0
    9.4707  -12.6887    0.0000 C   0  0  0  0  0  0  0  0  0  0  0  0
   15.4829   -8.0460    0.0000 C   0  0  0  0  0  0  0  0  0  0  0  0
    9.7401  -13.9890    0.0000 C   0  0  0  0  0  0  0  0  0  0  0  0
  -14.5082   -7.5793    0.0000 C   0  0  0  0  0  0  0  0  0  0  0  0
  -15.4681   -8.6379    0.0000 C   0  0  0  0  0  0  0  0  0  0  0  0
    9.7372  -14.8140    0.0000 C   0  0  0  0  0  0  0  0  0  0  0  0
   11.1662  -14.8189    0.0000 C   0  0  0  0  0  0  0  0  0  0  0  0
   -9.2653  -11.7808    0.0000 Na  0  0  0  0  0 15  0  0  0  0  0  0
   -4.0848   -3.7491    0.0000 Na  0  0  0  0  0 15  0  0  0  0  0  0
   -2.0956   -5.2970    0.0000 Na  0  0  0  0  0 15  0  0  0  0  0  0
   -7.4550  -12.1810    0.0000 Na  0  0  0  0  0 15  0  0  0  0  0  0
   -7.5786   -7.0556    0.0000 Na  0  0  0  0  0 15  0  0  0  0  0  0
   -8.2034   -1.0053    0.0000 Na  0  0  0  0  0 15  0  0  0  0  0  0
    7.6514   -3.4068    0.0000 Na  0  0  0  0  0 15  0  0  0  0  0  0
    9.4617    0.4862    0.0000 Na  0  0  0  0  0 15  0  0  0  0  0  0
    3.6453    9.8809    0.0000 Na  0  0  0  0  0 15  0  0  0  0  0  0
   -5.3885   12.0978    0.0000 Na  0  0  0  0  0 15  0  0  0  0  0  0
   -5.8041    3.5073    0.0000 Na  0  0  0  0  0 15  0  0  0  0  0  0
   11.3969   -5.5051    0.0000 Na  0  0  0  0  0 15  0  0  0  0  0  0
    5.3270    5.9307    0.0000 Na  0  0  0  0  0 15  0  0  0  0  0  0
    4.2952    2.7363    0.0000 Na  0  0  0  0  0 15  0  0  0  0  0  0
   -2.1039   11.4056    0.0000 Na  0  0  0  0  0 15  0  0  0  0  0  0
   -7.2912    5.9390    0.0000 Na  0  0  0  0  0 15  0  0  0  0  0  0
   -1.3747    9.5650    0.0000 Na  0  0  0  0  0 15  0  0  0  0  0  0
   -8.1008   10.1200    0.0000 Na  0  0  0  0  0 15  0  0  0  0  0  0
  -12.3318  -10.7720    0.0000 Na  0  0  0  0  0 15  0  0  0  0  0  0
   12.0477   -9.6610    0.0000 Na  0  0  0  0  0 15  0  0  0  0  0  0
  1 21  2  0
  2 22  2  0
  3 23  2  0
  4 24  2  0
  5 25  2  0
  6 26  2  0
  7 27  2  0
  8 28  2  0
  9 29  2  0
 10 30  2  0
 11 31  2  0
 12 32  2  0
 13 33  2  0
 14 34  2  0
 15 35  2  0
 16 36  2  0
 17 37  2  0
 18 38  1  0
 19 39  2  0
 20 40  2  0
 21 56  1  0
 21 71  1  0
 21101  1  0
 22 58  1  0
 22 75  1  0
 22102  1  0
 23 57  1  0
 23 76  1  0
 23103  1  0
 24 59  1  0
 24 78  1  0
 24104  1  0
 25 54  1  0
 25 83  1  0
 25105  1  0
 26 63  1  0
 26 80  1  0
 26106  1  0
 27 65  1  0
 27 82  1  0
 27107  1  0
 28 66  1  0
 28 87  1  0
 28109  1  0
 29 67  1  0
 29 88  1  0
 29110  1  0
 30 69  1  0
 30 89  1  0
 30111  1  0
 31 64  1  0
 31 95  1  0
 31112  1  0
 32 68  1  0
 32 92  1  0
 32113  1  0
 33 74  1  0
 33 86  1  0
 33114  1  0
 34 70  1  0
 34 93  1  0
 34115  1  0
 35 72  1  0
 35 94  1  0
 35116  1  0
 36 77  1  0
 36 90  1  0
 36117  1  0
 37 79  1  0
 37 91  1  0
 37118  1  0
 38 84  1  0
 38 85  1  0
 38119  2  0
 39 98  1  0
 39 99  1  0
 39133  1  0
 40 96  1  0
 40108  1  0
 40137  1  0
 41219  1  0
 41226  1  0
 42225  1  0
 42239  1  0
 43228  1  0
 43238  1  0
 44227  1  0
 44242  1  0
 45229  1  0
 45243  1  0
 46234  1  0
 46245  1  0
 47235  1  0
 47249  1  0
 48246  1  0
 48261  1  0
 49254  1  0
 49272  1  0
 50258  1  0
 50273  1  0
 51257  1  0
 51274  1  0
 52259  1  0
 52275  1  0
 53255  1  0
 53279  1  0
218 54  1  6
 55260  1  0
 55277  1  0
220 56  1  1
222 57  1  1
224 58  1  1
223 59  1  6
 60271  1  0
 60285  1  0
 61276  1  0
 61288  1  0
 62278  1  0
 62289  1  0
231 63  1  6
230 64  1  1
241 65  1  1
248 66  1  1
251 67  1  6
247 68  1  6
252 69  1  1
250 70  1  6
 71280  1  0
253 72  1  1
 73294  1  0
 73302  1  0
263 74  1  6
 75284  1  0
 76286  1  0
267 77  1  6
 78287  1  0
270 79  1  6
 80292  1  0
 81299  1  0
 81310  1  0
 82293  1  0
 83297  1  0
290 84  1  1
 85291  1  0
 86296  1  0
 87300  1  0
 88301  1  0
 89305  1  0
 90303  1  0
 91304  1  0
 92306  1  0
 93308  1  0
 94309  1  0
 95311  1  0
298 96  1  6
 97319  1  0
 97320  1  0
 98312  1  0
314 99  1  6
100345  1  0
100350  1  0
108364  1  0
120325  2  0
121327  2  0
122328  2  0
123330  2  0
347124  1  1
125333  2  0
126340  2  0
127341  2  0
128342  2  0
129344  2  0
130346  2  0
131358  1  0
132352  2  0
134360  2  0
135361  2  0
136362  2  0
138371  2  0
139372  2  0
140373  2  0
141374  2  0
142375  2  0
143376  2  0
144378  2  0
145379  2  0
146380  2  0
147381  2  0
148382  2  0
149383  2  0
150384  2  0
151385  2  0
152387  2  0
153418  2  0
154420  2  0
226155  1  1
155313  1  0
155318  1  0
238156  1  6
156315  1  0
156321  1  0
239157  1  6
157322  1  0
157325  1  0
245158  1  6
158316  1  0
158326  1  0
242159  1  1
159323  1  0
159327  1  0
243160  1  6
160324  1  0
160328  1  0
249161  1  1
161329  1  0
161330  1  0
261162  1  6
162332  1  0
162333  1  0
272163  1  1
163335  1  0
163340  1  0
273164  1  6
164336  1  0
164341  1  0
274165  1  1
165337  1  0
165342  1  0
275166  1  1
166338  1  0
166344  1  0
277167  1  6
167339  1  0
167346  1  0
279168  1  6
168348  1  0
168352  1  0
285169  1  1
169355  1  0
169360  1  0
288170  1  1
170356  1  0
170361  1  0
289171  1  1
171359  1  0
171362  1  0
302172  1  6
172370  1  0
172372  1  0
310173  1  1
173377  1  0
173379  1  0
174318  2  0
174331  1  0
320175  1  1
175389  1  0
175399  1  0
176321  2  0
176334  1  0
177326  2  0
177343  1  0
178325  1  0
178371  1  0
179327  1  0
179373  1  0
180328  1  0
180374  1  0
181313  1  0
181388  2  0
182330  1  0
182376  1  0
183315  1  0
183396  2  0
184333  1  0
184380  1  0
185316  1  0
185398  2  0
186340  1  0
186382  1  0
187341  1  0
187383  1  0
188342  1  0
188384  1  0
189344  1  0
189385  1  0
190346  1  0
190387  1  0
350191  1  6
191413  1  0
191415  1  0
192375  1  0
192388  1  0
193352  1  0
193400  2  0
194378  1  0
194396  1  0
195381  1  0
195398  1  0
196360  1  0
196407  2  0
197361  1  0
197409  2  0
198362  1  0
198410  2  0
199372  1  0
199414  2  0
200379  1  0
200416  2  0
201399  2  0
201411  1  0
202389  1  0
202419  2  0
203388  1  0
204396  1  0
205398  1  0
206400  1  0
207415  2  0
207417  1  0
208407  1  0
209409  1  0
210410  1  0
211413  1  0
211421  2  0
212418  1  0
212419  1  0
213414  1  0
214416  1  0
215420  1  0
215421  1  0
216419  1  0
217421  1  0
218219  1  0
218221  1  0
219280  1  1
220225  1  0
220232  1  0
221226  1  0
222228  1  0
222233  1  0
223227  1  0
223236  1  0
224229  1  0
224237  1  0
225284  1  6
227286  1  1
228291  1  6
229287  1  6
230234  1  0
230240  1  0
231235  1  0
231244  1  0
232239  1  0
233238  1  0
234292  1  6
235293  1  1
236242  1  0
237243  1  0
240245  1  0
241246  1  0
241256  1  0
244249  1  0
246296  1  6
247254  1  0
247262  1  0
248258  1  0
248264  1  0
250257  1  0
250265  1  0
251259  1  0
251266  1  0
252255  1  0
252268  1  0
253260  1  0
253269  1  0
254300  1  1
255297  1  6
256261  1  0
257301  1  1
258303  1  6
259304  1  1
260305  1  6
262272  1  0
263271  1  0
263281  1  0
264273  1  0
265274  1  0
266275  1  0
267276  1  0
267282  1  0
268279  1  0
269277  1  0
270278  1  0
270283  1  0
271306  1  1
276308  1  1
278309  1  1
281285  1  0
282288  1  0
283289  1  0
290294  1  0
290295  1  0
294312  1  6
295302  1  0
298299  1  0
298307  1  0
299311  1  1
307310  1  0
313331  2  0
314317  1  0
314319  1  0
315334  2  0
316343  2  0
317320  1  0
319358  1  1
322351  2  0
323353  2  0
324354  2  0
329357  2  0
331375  1  0
332363  2  0
334378  1  0
335365  2  0
336366  2  0
337367  2  0
338368  2  0
339369  2  0
343381  1  0
345347  1  0
345364  1  6
347349  1  0
348386  2  0
349350  1  0
351371  1  0
351391  1  0
353373  1  0
353393  1  0
354374  1  0
354395  1  0
355390  2  0
356392  2  0
357376  1  0
357397  1  0
359394  2  0
363380  1  0
363401  1  0
365382  1  0
365403  1  0
366383  1  0
366404  1  0
367384  1  0
367405  1  0
368385  1  0
368406  1  0
369387  1  0
369408  1  0
370402  2  0
377412  2  0
386400  1  0
389411  2  0
390407  1  0
392409  1  0
394410  1  0
402414  1  0
411418  1  0
412416  1  0
413417  2  0
417420  1  0
M  CHG  8  18  -1 101  -1 102  -1 103  -1 104  -1 105  -1 106  -1 107  -1
M  CHG  8 109  -1 110  -1 111  -1 112  -1 113  -1 114  -1 115  -1 116  -1
M  CHG  8 117  -1 118  -1 133  -1 137  -1 422   1 423   1 424   1 425   1
M  CHG  8 426   1 427   1 428   1 429   1 430   1 431   1 432   1 433   1
M  CHG  8 434   1 435   1 436   1 437   1 438   1 439   1 440   1 441   1
V    1 0
V    2 1
V    3 2
V    4 3
V    5 4
V    6 5
V    7 6
V    8 7
V    9 8
V   10 9
V   11 10
V   12 11
V   13 12
V   14 13
V   15 14
V   16 15
V   17 16
V   18 17
V   19 18
V   20 19
V   21 20
V   22 21
V   23 22
V   24 23
V   25 24
V   26 25
V   27 26
V   28 27
V   29 28
V   30 29
V   31 30
V   32 31
V   33 32
V   34 33
V   35 34
V   36 35
V   37 36
V   38 37
V   39 38
V   40 39
V   41 60
V   42 61
V   43 62
V   44 63
V   45 64
V   46 65
V   47 66
V   48 67
V   49 68
V   50 69
V   51 70
V   52 71
V   53 72
V   54 73
V   55 74
V   56 75
V   57 76
V   58 77
V   59 78
V   60 79
V   61 80
V   62 81
V   63 82
V   64 83
V   65 84
V   66 85
V   67 86
V   68 87
V   69 88
V   70 89
V   71 90
V   72 91
V   73 92
V   74 93
V   75 94
V   76 95
V   77 96
V   78 97
V   79 98
V   80 99
V   81 100
V   82 101
V   83 102
V   84 103
V   85 104
V   86 105
V   87 106
V   88 107
V   89 108
V   90 109
V   91 110
V   92 111
V   93 112
V   94 113
V   95 114
V   96 115
V   97 116
V   98 117
V   99 118
V  100 119
V  101 120
V  102 121
V  103 122
V  104 123
V  105 124
V  106 125
V  107 126
V  108 127
V  109 128
V  110 129
V  111 130
V  112 131
V  113 132
V  114 133
V  115 134
V  116 135
V  117 136
V  118 137
V  119 138
V  120 139
V  121 140
V  122 141
V  123 142
V  124 143
V  125 144
V  126 145
V  127 146
V  128 147
V  129 148
V  130 149
V  131 150
V  132 151
V  133 152
V  134 153
V  135 154
V  136 155
V  137 156
V  138 157
V  139 158
V  140 159
V  141 160
V  142 161
V  143 162
V  144 163
V  145 164
V  146 165
V  147 166
V  148 167
V  149 168
V  150 169
V  151 170
V  152 171
V  153 172
V  154 173
V  155 174
V  156 175
V  157 176
V  158 177
V  159 178
V  160 179
V  161 180
V  162 181
V  163 182
V  164 183
V  165 184
V  166 185
V  167 186
V  168 187
V  169 188
V  170 189
V  171 190
V  172 191
V  173 192
V  174 193
V  175 194
V  176 195
V  177 196
V  178 197
V  179 198
V  180 199
V  181 200
V  182 201
V  183 202
V  184 203
V  185 204
V  186 205
V  187 206
V  188 207
V  189 208
V  190 209
V  191 210
V  192 211
V  193 212
V  194 213
V  195 214
V  196 215
V  197 216
V  198 217
V  199 218
V  200 219
V  201 220
V  202 221
V  203 222
V  204 223
V  205 224
V  206 225
V  207 226
V  208 227
V  209 228
V  210 229
V  211 230
V  212 231
V  213 232
V  214 233
V  215 234
V  216 235
V  217 236
V  218 237
V  219 238
V  220 239
V  221 240
V  222 241
V  223 242
V  224 243
V  225 244
V  226 245
V  227 246
V  228 247
V  229 248
V  230 249
V  231 250
V  232 251
V  233 252
V  234 253
V  235 254
V  236 255
V  237 256
V  238 257
V  239 258
V  240 259
V  241 260
V  242 261
V  243 262
V  244 263
V  245 264
V  246 265
V  247 266
V  248 267
V  249 268
V  250 269
V  251 270
V  252 271
V  253 272
V  254 273
V  255 274
V  256 275
V  257 276
V  258 277
V  259 278
V  260 279
V  261 280
V  262 281
V  263 282
V  264 283
V  265 284
V  266 285
V  267 286
V  268 287
V  269 288
V  270 289
V  271 290
V  272 291
V  273 292
V  274 293
V  275 294
V  276 295
V  277 296
V  278 297
V  279 298
V  280 299
V  281 300
V  282 301
V  283 302
V  284 303
V  285 304
V  286 305
V  287 306
V  288 307
V  289 308
V  290 309
V  291 310
V  292 311
V  293 312
V  294 313
V  295 314
V  296 315
V  297 316
V  298 317
V  299 318
V  300 319
V  301 320
V  302 321
V  303 322
V  304 323
V  305 324
V  306 325
V  307 326
V  308 327
V  309 328
V  310 329
V  311 330
V  312 331
V  313 332
V  314 333
V  315 334
V  316 335
V  317 336
V  318 337
V  319 338
V  320 339
V  321 340
V  322 341
V  323 342
V  324 343
V  325 344
V  326 345
V  327 346
V  328 347
V  329 348
V  330 349
V  331 350
V  332 351
V  333 352
V  334 353
V  335 354
V  336 355
V  337 356
V  338 357
V  339 358
V  340 359
V  341 360
V  342 361
V  343 362
V  344 363
V  345 364
V  346 365
V  347 366
V  348 367
V  349 368
V  350 369
V  351 370
V  352 371
V  353 372
V  354 373
V  355 374
V  356 375
V  357 376
V  358 377
V  359 378
V  360 379
V  361 380
V  362 381
V  363 382
V  364 383
V  365 384
V  366 385
V  367 386
V  368 387
V  369 388
V  370 389
V  371 390
V  372 391
V  373 392
V  374 393
V  375 394
V  376 395
V  377 396
V  378 397
V  379 398
V  380 399
V  381 400
V  382 401
V  383 402
V  384 403
V  385 404
V  386 405
V  387 406
V  388 407
V  389 408
V  390 409
V  391 410
V  392 411
V  393 412
V  394 413
V  395 414
V  396 415
V  397 416
V  398 417
V  399 418
V  400 419
V  401 420
V  402 421
V  403 422
V  404 423
V  405 424
V  406 425
V  407 426
V  408 427
V  409 428
V  410 429
V  411 430
V  412 431
V  413 432
V  414 433
V  415 434
V  416 435
V  417 436
V  418 437
V  419 438
V  420 439
V  421 440
V  422 40
V  423 41
V  424 42
V  425 43
V  426 44
V  427 45
V  428 46
V  429 47
V  430 48
V  431 49
V  432 50
V  433 51
V  434 52
V  435 53
V  436 54
V  437 55
V  438 56
V  439 57
V  440 58
V  441 59
M  END
