8230
     RDKit          2D

 75 78  0  0  1  0  0  0  0  0999 V2000
    9.2966    0.0619    0.0000 S   0  0  0  0  0  0  0  0  0  0  0  0
   10.1627    0.5619    0.0000 S   0  0  0  0  0  0  0  0  0  0  0  0
    4.7306    0.8625    0.0000 O   0  0  0  0  0  0  0  0  0  0  0  0
    5.8326    0.0619    0.0000 O   0  0  0  0  0  0  0  0  0  0  0  0
    2.7091    3.8481    0.0000 O   0  0  0  0  0  0  0  0  0  0  0  0
    5.8326   -0.9381    0.0000 O   0  0  0  0  0  0  0  0  0  0  0  0
    6.6986   -4.4381    0.0000 O   0  0  0  0  0  0  0  0  0  0  0  0
    4.9665   -1.4381    0.0000 O   0  0  0  0  0  0  0  0  0  0  0  0
   10.1627   -5.4381    0.0000 O   0  0  0  0  0  0  0  0  0  0  0  0
   13.6268   -4.4381    0.0000 O   0  0  0  0  0  0  0  0  0  0  0  0
    4.2839    7.0915    0.0000 O   0  0  0  0  0  0  0  0  0  0  0  0
   12.2367   -0.4984    0.0000 O   0  0  0  0  0  0  0  0  0  0  0  0
    8.4306   -7.4381    0.0000 O   0  0  0  0  0  0  0  0  0  0  0  0
   17.0909   -4.4381    0.0000 O   0  0  0  0  0  0  0  0  0  0  0  0
    6.6986    1.5619    0.0000 N   0  0  0  0  0  0  0  0  0  0  0  0
    4.1954    2.5098    0.0000 N   0  0  0  0  0  0  0  0  0  0  0  0
    7.5646   -0.9381    0.0000 N   0  0  0  0  0  0  0  0  0  0  0  0
    3.8680    5.1352    0.0000 N   0  0  0  0  0  0  0  0  0  0  0  0
    7.5646   -2.9381    0.0000 N   0  0  0  0  0  0  0  0  0  0  0  0
    9.2966   -3.9381    0.0000 N   0  0  0  0  0  0  0  0  0  0  0  0
    6.7212    6.0623    0.0000 N   0  0  0  0  0  0  0  0  0  0  0  0
   11.8947   -4.4381    0.0000 N   0  0  0  0  0  0  0  0  0  0  0  0
   11.8947   -2.4381    0.0000 N   0  0  0  0  0  0  0  0  0  0  0  0
    4.1005   -2.9381    0.0000 N   0  0  0  0  0  0  0  0  0  0  0  0
   10.1627   -1.4381    0.0000 N   0  0  0  0  0  0  0  0  0  0  0  0
    2.5896    7.4516    0.0000 N   0  0  0  0  0  0  0  0  0  0  0  0
    7.8802    7.3494    0.0000 N   0  0  0  0  0  0  0  0  0  0  0  0
    8.4154    5.7022    0.0000 N   0  0  0  0  0  0  0  0  0  0  0  0
    6.6986   -7.4381    0.0000 N   0  0  0  0  0  0  0  0  0  0  0  0
    5.8896    2.1497    0.0000 C   0  0  0  0  0  0  0  0  0  0  0  0
    6.1986    3.1008    0.0000 C   0  0  0  0  0  0  0  0  0  0  0  0
    7.1986    3.1008    0.0000 C   0  0  0  0  0  0  0  0  0  0  0  0
    7.5076    2.1497    0.0000 C   0  0  0  0  0  0  0  0  0  0  0  0
    4.9385    1.8407    0.0000 C   0  0  0  0  0  0  0  0  0  0  0  0
    6.6986    0.5619    0.0000 C   0  0  0  0  0  0  0  0  0  0  0  0
    7.5646    0.0619    0.0000 C   0  0  0  0  0  0  0  0  0  0  0  0
    4.4033    3.4880    0.0000 C   0  0  0  0  0  0  0  0  0  0  0  0
    8.4306    0.5619    0.0000 C   0  0  0  0  0  0  0  0  0  0  0  0
    5.3543    3.7970    0.0000 C   0  0  0  0  0  0  0  0  0  0  0  0
    3.6601    4.1571    0.0000 C   0  0  0  0  0  0  0  0  0  0  0  0
    5.5622    4.7751    0.0000 C   0  0  0  0  0  0  0  0  0  0  0  0
    6.6986   -1.4381    0.0000 C   0  0  0  0  0  0  0  0  0  0  0  0
    6.6986   -2.4381    0.0000 C   0  0  0  0  0  0  0  0  0  0  0  0
    6.5133    5.0841    0.0000 C   0  0  0  0  0  0  0  0  0  0  0  0
    5.8326   -2.9381    0.0000 C   0  0  0  0  0  0  0  0  0  0  0  0
    8.4306   -4.4381    0.0000 C   0  0  0  0  0  0  0  0  0  0  0  0
    7.5646   -3.9381    0.0000 C   0  0  0  0  0  0  0  0  0  0  0  0
    3.1249    5.8044    0.0000 C   0  0  0  0  0  0  0  0  0  0  0  0
    8.4306   -5.4381    0.0000 C   0  0  0  0  0  0  0  0  0  0  0  0
   11.0287    0.0619    0.0000 C   0  0  0  0  0  0  0  0  0  0  0  0
    4.9665   -2.4381    0.0000 C   0  0  0  0  0  0  0  0  0  0  0  0
   11.0287   -3.9381    0.0000 C   0  0  0  0  0  0  0  0  0  0  0  0
   11.0287   -0.9381    0.0000 C   0  0  0  0  0  0  0  0  0  0  0  0
   10.1627   -4.4381    0.0000 C   0  0  0  0  0  0  0  0  0  0  0  0
   12.7608   -2.9381    0.0000 C   0  0  0  0  0  0  0  0  0  0  0  0
    7.5646   -5.9381    0.0000 C   0  0  0  0  0  0  0  0  0  0  0  0
   10.6867   -2.9984    0.0000 C   0  0  0  0  0  0  0  0  0  0  0  0
   12.7608   -3.9381    0.0000 C   0  0  0  0  0  0  0  0  0  0  0  0
    3.3328    6.7825    0.0000 C   0  0  0  0  0  0  0  0  0  0  0  0
   11.8947   -1.4381    0.0000 C   0  0  0  0  0  0  0  0  0  0  0  0
   13.6268   -2.4381    0.0000 C   0  0  0  0  0  0  0  0  0  0  0  0
    7.6723    6.3713    0.0000 C   0  0  0  0  0  0  0  0  0  0  0  0
   11.3295   -2.2324    0.0000 C   0  0  0  0  0  0  0  0  0  0  0  0
    7.5646   -6.9381    0.0000 C   0  0  0  0  0  0  0  0  0  0  0  0
   14.4928   -2.9381    0.0000 C   0  0  0  0  0  0  0  0  0  0  0  0
   10.9874   -1.2927    0.0000 C   0  0  0  0  0  0  0  0  0  0  0  0
   12.3143   -2.4060    0.0000 C   0  0  0  0  0  0  0  0  0  0  0  0
   15.3588   -2.4381    0.0000 C   0  0  0  0  0  0  0  0  0  0  0  0
   14.4928   -3.9381    0.0000 C   0  0  0  0  0  0  0  0  0  0  0  0
   11.6302   -0.5266    0.0000 C   0  0  0  0  0  0  0  0  0  0  0  0
   12.9571   -1.6400    0.0000 C   0  0  0  0  0  0  0  0  0  0  0  0
   12.6150   -0.7003    0.0000 C   0  0  0  0  0  0  0  0  0  0  0  0
   16.2249   -2.9381    0.0000 C   0  0  0  0  0  0  0  0  0  0  0  0
   15.3588   -4.4381    0.0000 C   0  0  0  0  0  0  0  0  0  0  0  0
   16.2249   -3.9381    0.0000 C   0  0  0  0  0  0  0  0  0  0  0  0
  1  2  1  0
  1 38  1  0
  2 50  1  0
  3 34  2  0
  4 35  2  0
  5 40  2  0
  6 42  2  0
  7 47  2  0
  8 51  2  0
  9 54  2  0
 10 58  2  0
 11 59  2  0
 12 60  2  0
 13 64  2  0
 14 75  1  0
 15 30  1  0
 15 33  1  0
 15 35  1  0
 16 34  1  0
 16 37  1  0
 17 36  1  0
 17 42  1  0
 18 40  1  0
 18 48  1  0
 19 43  1  0
 19 47  1  0
 20 46  1  0
 20 54  1  0
 21 44  1  0
 21 62  2  0
 22 52  1  0
 22 58  1  0
 23 55  1  0
 23 60  1  0
 24 51  1  0
 25 53  1  0
 26 59  1  0
 27 62  1  0
 28 62  1  0
 29 64  1  0
 30 31  1  0
 30 34  1  0
 31 32  1  0
 32 33  1  0
 35 36  1  0
 36 38  1  0
 37 39  1  0
 37 40  1  0
 39 41  1  0
 41 44  1  0
 42 43  1  0
 43 45  1  0
 45 51  1  0
 46 47  1  0
 46 49  1  0
 48 59  1  0
 49 56  1  0
 50 53  1  0
 52 54  1  0
 52 57  1  0
 53 60  1  0
 55 58  1  0
 55 61  1  0
 56 64  1  0
 57 63  1  0
 61 65  1  0
 63 66  2  0
 63 67  1  0
 65 68  2  0
 65 69  1  0
 66 70  1  0
 67 71  2  0
 68 73  1  0
 69 74  2  0
 70 72  2  0
 71 72  1  0
 73 75  2  0
 74 75  1  0
M  END
