128270-60-0.MOL
     RDKit          2D

155160  0  0  0  0  0  0  0  0999 V2000
   11.0612   -0.1584    0.0000 C   0  0  0  0  0  0  0  0  0  0  0  0
   10.3455   -0.5719    0.0000 C   0  0  0  0  0  0  0  0  0  0  0  0
   11.0612    0.6664    0.0000 O   0  0  0  0  0  0  0  0  0  0  0  0
   11.7769   -0.5719    0.0000 N   0  0  0  0  0  0  0  0  0  0  0  0
    9.6298   -0.1584    0.0000 N   0  0  0  0  0  0  0  0  0  0  0  0
   10.3455   -1.3969    0.0000 C   0  0  0  0  0  0  0  0  0  0  0  0
   12.4575   -0.0664    0.0000 C   0  0  0  0  0  0  0  0  0  0  0  0
   12.0141   -1.3417    0.0000 C   0  0  0  0  0  0  0  0  0  0  0  0
    8.9162   -0.5719    0.0000 C   0  0  0  0  0  0  0  0  0  0  0  0
   11.0612   -1.8084    0.0000 C   0  0  0  0  0  0  0  0  0  0  0  0
    9.6298   -1.8084    0.0000 C   0  0  0  0  0  0  0  0  0  0  0  0
   12.4575    0.7592    0.0000 C   0  0  0  0  0  0  0  0  0  0  0  0
   13.1113   -0.5719    0.0000 C   0  0  0  0  0  0  0  0  0  0  0  0
   12.8452   -1.3417    0.0000 C   0  0  0  0  0  0  0  0  0  0  0  0
    8.2026   -0.1584    0.0000 C   0  0  0  0  0  0  0  0  0  0  0  0
    8.9162   -1.3969    0.0000 O   0  0  0  0  0  0  0  0  0  0  0  0
   11.7769   -1.3969    0.0000 C   0  0  0  0  0  0  0  0  0  0  0  0
   13.1732    1.1717    0.0000 N   0  0  0  0  0  0  0  0  0  0  0  0
   11.7439    1.1717    0.0000 O   0  0  0  0  0  0  0  0  0  0  0  0
    7.4869   -0.5719    0.0000 N   0  0  0  0  0  0  0  0  0  0  0  0
    8.2026    0.6664    0.0000 C   0  0  0  0  0  0  0  0  0  0  0  0
   13.8868    0.7592    0.0000 C   0  0  0  0  0  0  0  0  0  0  0  0
    6.7733   -0.1584    0.0000 C   0  0  0  0  0  0  0  0  0  0  0  0
    8.9162    1.0789    0.0000 C   0  0  0  0  0  0  0  0  0  0  0  0
   14.6004    1.1717    0.0000 C   0  0  0  0  0  0  0  0  0  0  0  0
   13.8868   -0.0664    0.0000 C   0  0  0  0  0  0  0  0  0  0  0  0
    6.0576   -0.5719    0.0000 C   0  0  0  0  0  0  0  0  0  0  0  0
    6.7733    0.6664    0.0000 O   0  0  0  0  0  0  0  0  0  0  0  0
    8.9162    1.9039    0.0000 C   0  0  0  0  0  0  0  0  0  0  0  0
   15.3161    0.7592    0.0000 N   0  0  0  0  0  0  0  0  0  0  0  0
   14.6004    1.9967    0.0000 O   0  0  0  0  0  0  0  0  0  0  0  0
   14.6087   -0.4655    0.0000 C   0  0  0  0  0  0  0  0  0  0  0  0
    5.3439   -0.1584    0.0000 N   0  0  0  0  0  0  0  0  0  0  0  0
    6.0576   -1.3969    0.0000 C   0  0  0  0  0  0  0  0  0  0  0  0
    8.2026    2.3164    0.0000 O   0  0  0  0  0  0  0  0  0  0  0  0
    9.6298    2.3164    0.0000 O   0  0  0  0  0  0  0  0  0  0  0  0
   16.0297    1.1717    0.0000 C   0  0  0  0  0  0  0  0  0  0  0  0
   14.6087   -1.2905    0.0000 C   0  0  0  0  0  0  0  0  0  0  0  0
    4.6303   -0.5719    0.0000 C   0  0  0  0  0  0  0  0  0  0  0  0
    6.7815   -1.7962    0.0000 C   0  0  0  0  0  0  0  0  0  0  0  0
   16.7454    0.7592    0.0000 C   0  0  0  0  0  0  0  0  0  0  0  0
   16.0297    1.9967    0.0000 C   0  0  0  0  0  0  0  0  0  0  0  0
   13.8951   -1.7040    0.0000 O   0  0  0  0  0  0  0  0  0  0  0  0
   15.3223   -1.7040    0.0000 O   0  0  0  0  0  0  0  0  0  0  0  0
    3.9146   -0.1584    0.0000 C   0  0  0  0  0  0  0  0  0  0  0  0
    4.6303   -1.3969    0.0000 O   0  0  0  0  0  0  0  0  0  0  0  0
    6.7815   -2.6212    0.0000 C   0  0  0  0  0  0  0  0  0  0  0  0
   17.4611    1.1717    0.0000 N   0  0  0  0  0  0  0  0  0  0  0  0
   16.7454   -0.0664    0.0000 O   0  0  0  0  0  0  0  0  0  0  0  0
   16.7454    2.4092    0.0000 C   0  0  0  0  0  0  0  0  0  0  0  0
    3.9146    0.6664    0.0000 C   0  0  0  0  0  0  0  0  0  0  0  0
    3.2010   -0.5719    0.0000 N   0  0  0  0  0  0  0  0  0  0  0  0
    6.0637   -3.0327    0.0000 O   0  0  0  0  0  0  0  0  0  0  0  0
    7.4931   -3.0327    0.0000 O   0  0  0  0  0  0  0  0  0  0  0  0
   18.1747    0.7592    0.0000 C   0  0  0  0  0  0  0  0  0  0  0  0
   16.7454    3.2342    0.0000 C   0  0  0  0  0  0  0  0  0  0  0  0
    4.6303    1.0789    0.0000 C   0  0  0  0  0  0  0  0  0  0  0  0
    2.4853   -0.1584    0.0000 C   0  0  0  0  0  0  0  0  0  0  0  0
   18.8884    1.1717    0.0000 C   0  0  0  0  0  0  0  0  0  0  0  0
   18.1747   -0.2485    0.0000 C   0  0  0  0  0  0  0  0  0  0  0  0
   16.0297    3.6467    0.0000 O   0  0  0  0  0  0  0  0  0  0  0  0
   17.4591    3.6467    0.0000 O   0  0  0  0  0  0  0  0  0  0  0  0
    4.6303    1.9039    0.0000 C   0  0  0  0  0  0  0  0  0  0  0  0
    5.3460    0.6664    0.0000 C   0  0  0  0  0  0  0  0  0  0  0  0
    1.7717   -0.5719    0.0000 C   0  0  0  0  0  0  0  0  0  0  0  0
    2.4853    0.6664    0.0000 O   0  0  0  0  0  0  0  0  0  0  0  0
   18.8884    1.9946    0.0000 C   0  0  0  0  0  0  0  0  0  0  0  0
   18.8904   -0.6600    0.0000 N   0  0  0  0  0  0  0  0  0  0  0  0
   17.4611   -0.6600    0.0000 O   0  0  0  0  0  0  0  0  0  0  0  0
    5.3460    2.3164    0.0000 C   0  0  0  0  0  0  0  0  0  0  0  0
    6.0576    1.0789    0.0000 C   0  0  0  0  0  0  0  0  0  0  0  0
    1.0581   -0.1584    0.0000 N   0  0  0  0  0  0  0  0  0  0  0  0
    1.7717   -1.5772    0.0000 C   0  0  0  0  0  0  0  0  0  0  0  0
   18.1727    2.4092    0.0000 C   0  0  0  0  0  0  0  0  0  0  0  0
   19.6020    2.4092    0.0000 C   0  0  0  0  0  0  0  0  0  0  0  0
   19.6020   -0.2485    0.0000 C   0  0  0  0  0  0  0  0  0  0  0  0
    6.0576    1.9039    0.0000 C   0  0  0  0  0  0  0  0  0  0  0  0
    0.3424   -0.5719    0.0000 C   0  0  0  0  0  0  0  0  0  0  0  0
    2.4771   -2.0029    0.0000 C   0  0  0  0  0  0  0  0  0  0  0  0
   18.1747    3.2342    0.0000 C   0  0  0  0  0  0  0  0  0  0  0  0
   19.6020    3.2342    0.0000 C   0  0  0  0  0  0  0  0  0  0  0  0
   19.6020    0.5756    0.0000 C   0  0  0  0  0  0  0  0  0  0  0  0
   20.3177   -0.6600    0.0000 C   0  0  0  0  0  0  0  0  0  0  0  0
   -0.3715   -0.1584    0.0000 C   0  0  0  0  0  0  0  0  0  0  0  0
    0.3424   -1.3969    0.0000 O   0  0  0  0  0  0  0  0  0  0  0  0
    3.1927   -1.5894    0.0000 O   0  0  0  0  0  0  0  0  0  0  0  0
    2.4771   -2.8279    0.0000 O   0  0  0  0  0  0  0  0  0  0  0  0
   18.8884    3.6446    0.0000 C   0  0  0  0  0  0  0  0  0  0  0  0
   20.3177    0.9902    0.0000 C   0  0  0  0  0  0  0  0  0  0  0  0
   21.0313   -0.2485    0.0000 O   0  0  0  0  0  0  0  0  0  0  0  0
   20.3177   -1.4850    0.0000 O   0  0  0  0  0  0  0  0  0  0  0  0
   -1.0880   -0.5719    0.0000 N   0  0  0  0  0  0  0  0  0  0  0  0
   18.8884    4.4696    0.0000 O   0  0  0  0  0  0  0  0  0  0  0  0
   21.0313    0.5756    0.0000 C   0  0  0  0  0  0  0  0  0  0  0  0
   20.3177    1.8152    0.0000 C   0  0  0  0  0  0  0  0  0  0  0  0
   -1.8024   -0.1584    0.0000 C   0  0  0  0  0  0  0  0  0  0  0  0
   -2.5169   -0.5719    0.0000 C   0  0  0  0  0  0  0  0  0  0  0  0
   -1.8024    0.6664    0.0000 O   0  0  0  0  0  0  0  0  0  0  0  0
   -3.2313   -0.1584    0.0000 N   0  0  0  0  0  0  0  0  0  0  0  0
   -2.5169   -1.5772    0.0000 C   0  0  0  0  0  0  0  0  0  0  0  0
   -3.9458   -0.5719    0.0000 C   0  0  0  0  0  0  0  0  0  0  0  0
   -1.8086   -2.0029    0.0000 C   0  0  0  0  0  0  0  0  0  0  0  0
   -4.6602   -0.1584    0.0000 C   0  0  0  0  0  0  0  0  0  0  0  0
   -3.9458   -1.3969    0.0000 O   0  0  0  0  0  0  0  0  0  0  0  0
   -1.0942   -1.5894    0.0000 N   0  0  0  0  0  0  0  0  0  0  0  0
   -1.8086   -2.8279    0.0000 O   0  0  0  0  0  0  0  0  0  0  0  0
   -5.3747   -0.5719    0.0000 N   0  0  0  0  0  0  0  0  0  0  0  0
   -6.0891   -0.1584    0.0000 C   0  0  0  0  0  0  0  0  0  0  0  0
   -6.8036   -0.5719    0.0000 C   0  0  0  0  0  0  0  0  0  0  0  0
   -6.0891    0.6664    0.0000 O   0  0  0  0  0  0  0  0  0  0  0  0
   -7.5182   -0.1584    0.0000 N   0  0  0  0  0  0  0  0  0  0  0  0
   -8.2327   -0.5719    0.0000 C   0  0  0  0  0  0  0  0  0  0  0  0
   -8.9471   -0.1584    0.0000 C   0  0  0  0  0  0  0  0  0  0  0  0
   -8.2327   -1.3969    0.0000 O   0  0  0  0  0  0  0  0  0  0  0  0
   -9.6616   -0.5719    0.0000 N   0  0  0  0  0  0  0  0  0  0  0  0
  -10.3760   -0.1584    0.0000 C   0  0  0  0  0  0  0  0  0  0  0  0
  -11.0905   -0.5719    0.0000 C   0  0  0  0  0  0  0  0  0  0  0  0
  -10.3760    0.6664    0.0000 O   0  0  0  0  0  0  0  0  0  0  0  0
  -11.8049   -0.1584    0.0000 N   0  0  0  0  0  0  0  0  0  0  0  0
  -12.5194   -0.5719    0.0000 C   0  0  0  0  0  0  0  0  0  0  0  0
  -12.5194   -1.3969    0.0000 O   0  0  0  0  0  0  0  0  0  0  0  0
  -13.2357   -0.1584    0.0000 C   0  0  0  0  0  0  0  0  0  0  0  0
  -13.9175   -0.6641    0.0000 N   0  0  0  0  0  0  0  0  0  0  0  0
  -13.4733    0.6128    0.0000 C   0  0  0  0  0  0  0  0  0  0  0  0
  -13.9175   -1.4891    0.0000 C   0  0  0  0  0  0  0  0  0  0  0  0
  -14.5705   -0.1584    0.0000 C   0  0  0  0  0  0  0  0  0  0  0  0
  -14.3045    0.6128    0.0000 C   0  0  0  0  0  0  0  0  0  0  0  0
  -14.6320   -1.9006    0.0000 C   0  0  0  0  0  0  0  0  0  0  0  0
  -13.2031   -1.9006    0.0000 O   0  0  0  0  0  0  0  0  0  0  0  0
  -15.3464   -1.4891    0.0000 N   0  0  0  0  0  0  0  0  0  0  0  0
  -14.6320   -2.9077    0.0000 C   0  0  0  0  0  0  0  0  0  0  0  0
  -16.0609   -1.9006    0.0000 C   0  0  0  0  0  0  0  0  0  0  0  0
  -13.9256   -3.3336    0.0000 C   0  0  0  0  0  0  0  0  0  0  0  0
  -16.0609   -2.7256    0.0000 O   0  0  0  0  0  0  0  0  0  0  0  0
  -16.7753   -1.4891    0.0000 C   0  0  0  0  0  0  0  0  0  0  0  0
  -13.2091   -2.9201    0.0000 C   0  0  0  0  0  0  0  0  0  0  0  0
  -17.4591   -1.9946    0.0000 N   0  0  0  0  0  0  0  0  0  0  0  0
  -17.0148   -0.7173    0.0000 C   0  0  0  0  0  0  0  0  0  0  0  0
  -12.5029   -3.3458    0.0000 N   0  0  0  0  0  0  0  0  0  0  0  0
  -17.4591   -2.8196    0.0000 C   0  0  0  0  0  0  0  0  0  0  0  0
  -18.1120   -1.4891    0.0000 C   0  0  0  0  0  0  0  0  0  0  0  0
  -17.8460   -0.7173    0.0000 C   0  0  0  0  0  0  0  0  0  0  0  0
  -11.7884   -2.9323    0.0000 C   0  0  0  0  0  0  0  0  0  0  0  0
  -18.1735   -3.2311    0.0000 C   0  0  0  0  0  0  0  0  0  0  0  0
  -16.7446   -3.2311    0.0000 O   0  0  0  0  0  0  0  0  0  0  0  0
  -11.7884   -2.1073    0.0000 N   0  0  0  0  0  0  0  0  0  0  0  0
  -11.0802   -3.3561    0.0000 N   0  0  0  0  0  0  0  0  0  0  0  0
  -18.8880   -2.8196    0.0000 C   0  0  0  0  0  0  0  0  0  0  0  0
  -18.1735   -4.0561    0.0000 N   0  0  0  0  0  0  0  0  0  0  0  0
  -19.6024   -3.2311    0.0000 C   0  0  0  0  0  0  0  0  0  0  0  0
  -20.3169   -2.8196    0.0000 C   0  0  0  0  0  0  0  0  0  0  0  0
  -19.6024   -4.0561    0.0000 C   0  0  0  0  0  0  0  0  0  0  0  0
  -21.0313   -3.2311    0.0000 C   0  0  0  0  0  0  0  0  0  0  0  0
  -20.3169   -4.4696    0.0000 C   0  0  0  0  0  0  0  0  0  0  0  0
  -21.0313   -4.0561    0.0000 C   0  0  0  0  0  0  0  0  0  0  0  0
  1  2  1  0
  1  3  2  0
  1  4  1  0
  2  5  1  6
  2  6  1  0
  4  7  1  0
  4  8  1  0
  5  9  1  0
  6 10  1  0
  6 11  1  6
  7 12  1  6
  7 13  1  0
  8 14  1  0
  9 15  1  0
  9 16  2  0
 10 17  1  0
 12 18  1  0
 12 19  2  0
 13 14  1  0
 15 20  1  0
 15 21  1  1
 18 22  1  0
 20 23  1  0
 21 24  1  0
 22 25  1  0
 22 26  1  6
 23 27  1  0
 23 28  2  0
 24 29  1  0
 25 30  1  0
 25 31  2  0
 26 32  1  0
 27 33  1  0
 27 34  1  6
 29 35  1  0
 29 36  2  0
 30 37  1  0
 32 38  1  0
 33 39  1  0
 34 40  1  0
 37 41  1  0
 37 42  1  1
 38 43  1  0
 38 44  2  0
 39 45  1  0
 39 46  2  0
 40 47  1  0
 41 48  1  0
 41 49  2  0
 42 50  1  0
 45 51  1  1
 45 52  1  0
 47 53  1  0
 47 54  2  0
 48 55  1  0
 50 56  1  0
 51 57  1  0
 52 58  1  0
 55 59  1  1
 55 60  1  0
 56 61  1  0
 56 62  2  0
 57 63  2  0
 57 64  1  0
 58 65  1  0
 58 66  2  0
 59 67  1  0
 60 68  1  0
 60 69  2  0
 63 70  1  0
 64 71  2  0
 65 72  1  0
 65 73  1  6
 67 74  2  0
 67 75  1  0
 68 76  1  0
 70 77  2  0
 71 77  1  0
 72 78  1  0
 73 79  1  0
 74 80  1  0
 75 81  2  0
 76 82  1  1
 76 83  1  0
 78 84  1  0
 78 85  2  0
 79 86  1  0
 79 87  2  0
 80 88  2  0
 81 88  1  0
 82 89  1  0
 83 90  1  0
 83 91  2  0
 84 92  1  0
 88 93  1  0
 89 94  1  0
 89 95  1  0
 92 96  1  0
 96 97  1  0
 96 98  2  0
 97 99  1  0
 97100  1  6
 99101  1  0
100102  1  0
101103  1  0
101104  2  0
102105  1  0
102106  2  0
103107  1  0
107108  1  0
108109  1  0
108110  2  0
109111  1  0
111112  1  0
112113  1  0
112114  2  0
113115  1  0
115116  1  0
116117  1  0
116118  2  0
117119  1  0
119120  1  0
120121  2  0
122120  1  1
122123  1  0
122124  1  0
123125  1  0
123126  1  0
124127  1  0
125128  1  0
125129  2  0
126127  1  0
128130  1  0
128131  1  6
130132  1  0
131133  1  0
132134  2  0
135132  1  1
133136  1  0
135137  1  0
135138  1  0
136139  1  0
137140  1  0
137141  1  0
138142  1  0
139143  1  0
140144  1  0
140145  2  0
141142  1  0
143146  2  0
143147  1  0
144148  1  0
144149  1  6
148150  1  0
150151  2  0
150152  1  0
151153  1  0
152154  2  0
153155  2  0
154155  1  0
M  END
