 
     RDKit          2D

249262  0  0  0  0  0  0  0  0999 V2000
   24.0335  -15.5458    0.0000 C   0  0  0  0  0  0  0  0  0  0  0  0
   24.0335  -16.9748    0.0000 C   0  0  0  0  0  0  0  0  0  0  0  0
   25.2341  -14.8371    0.0000 C   0  0  0  0  0  0  0  0  0  0  0  0
   22.7217  -15.1124    0.0000 N   0  0  0  0  0  0  0  0  0  0  0  0
   25.2341  -17.6599    0.0000 N   0  0  0  0  0  0  0  0  0  0  0  0
   22.7217  -17.4080    0.0000 N   0  0  0  0  0  0  0  0  0  0  0  0
   26.4579  -15.5750    0.0000 N   0  0  0  0  0  0  0  0  0  0  0  0
   25.2341  -13.4551    0.0000 O   0  0  0  0  0  0  0  0  0  0  0  0
   21.9077  -16.2720    0.0000 C   0  0  0  0  0  0  0  0  0  0  0  0
   26.4579  -16.9220    0.0000 C   0  0  0  0  0  0  0  0  0  0  0  0
   25.2341  -19.0946    0.0000 C   0  0  0  0  0  0  0  0  0  0  0  0
   27.7111  -14.8957    0.0000 C   0  0  0  0  0  0  0  0  0  0  0  0
   20.5022  -16.2778    0.0000 Cl  0  0  0  0  0  0  0  0  0  0  0  0
   27.7111  -17.6248    0.0000 O   0  0  0  0  0  0  0  0  0  0  0  0
   13.1842  -16.5304    0.0000 C   0  0  0  0  0  0  0  0  0  0  0  0
   11.9719  -17.2389    0.0000 C   0  0  0  0  0  0  0  0  0  0  0  0
   14.4022  -17.2389    0.0000 C   0  0  0  0  0  0  0  0  0  0  0  0
   13.1900  -15.1308    0.0000 O   0  0  0  0  0  0  0  0  0  0  0  0
   11.9719  -18.6326    0.0000 C   0  0  0  0  0  0  0  0  0  0  0  0
   10.7597  -16.5304    0.0000 C   0  0  0  0  0  0  0  0  0  0  0  0
   14.3965  -18.6326    0.0000 C   0  0  0  0  0  0  0  0  0  0  0  0
   15.6088  -16.5304    0.0000 C   0  0  0  0  0  0  0  0  0  0  0  0
   14.4022  -14.4280    0.0000 C   0  0  0  0  0  0  0  0  0  0  0  0
   10.7597  -19.3296    0.0000 C   0  0  0  0  0  0  0  0  0  0  0  0
    9.5475  -17.2389    0.0000 C   0  0  0  0  0  0  0  0  0  0  0  0
   15.6088  -19.3296    0.0000 C   0  0  0  0  0  0  0  0  0  0  0  0
   16.8209  -17.2389    0.0000 C   0  0  0  0  0  0  0  0  0  0  0  0
    9.5475  -18.6326    0.0000 C   0  0  0  0  0  0  0  0  0  0  0  0
   16.8150  -18.6326    0.0000 C   0  0  0  0  0  0  0  0  0  0  0  0
   15.6064  -15.1220    0.0000 C   0  0  0  0  0  0  0  0  0  0  0  0
   16.7880  -14.4384    0.0000 N   0  0  0  0  0  0  0  0  0  0  0  0
   17.9856  -15.1287    0.0000 C   0  0  0  0  0  0  0  0  0  0  0  0
   16.7870  -13.0368    0.0000 C   0  0  0  0  0  0  0  0  0  0  0  0
   -1.4289   -0.8250    0.0000 C   0  0  0  0  0  0  0  0  0  0  0  0
   -0.7145   -0.4125    0.0000 C   0  0  0  0  0  0  0  0  0  0  0  0
    0.0000   -0.8250    0.0000 O   0  0  0  0  0  0  0  0  0  0  0  0
    0.7145   -0.4125    0.0000 C   0  0  0  0  0  0  0  0  0  0  0  0
    0.7145    0.4125    0.0000 C   0  0  0  0  0  0  0  0  0  0  0  0
    0.0000    0.8250    0.0000 C   0  0  0  0  0  0  0  0  0  0  0  0
    0.0000    1.6500    0.0000 C   0  0  0  0  0  0  0  0  0  0  0  0
    0.7145    2.0625    0.0000 C   0  0  0  0  0  0  0  0  0  0  0  0
    1.4289    1.6500    0.0000 C   0  0  0  0  0  0  0  0  0  0  0  0
    1.4289    0.8250    0.0000 C   0  0  0  0  0  0  0  0  0  0  0  0
    1.4289   -0.8250    0.0000 C   0  0  0  0  0  0  0  0  0  0  0  0
    2.1434   -0.4125    0.0000 C   0  0  0  0  0  0  0  0  0  0  0  0
    2.8579   -0.8250    0.0000 C   0  0  0  0  0  0  0  0  0  0  0  0
    2.8579   -1.6500    0.0000 C   0  0  0  0  0  0  0  0  0  0  0  0
    2.1434   -2.0625    0.0000 C   0  0  0  0  0  0  0  0  0  0  0  0
    1.4289   -1.6500    0.0000 C   0  0  0  0  0  0  0  0  0  0  0  0
   -2.1434   -0.4125    0.0000 N   0  0  0  0  0  0  0  0  0  0  0  0
   -2.8579   -0.8250    0.0000 C   0  0  0  0  0  0  0  0  0  0  0  0
   -2.1434    0.4125    0.0000 C   0  0  0  0  0  0  0  0  0  0  0  0
    0.3572   -2.2399    0.0000 O   0  0  0  0  0  0  0  0  0  0  0  0
    0.3572   -4.7150    0.0000 O   0  0  0  0  0  0  0  0  0  0  0  0
   -1.0717   -3.8900    0.0000 O   0  0  0  0  0  0  0  0  0  0  0  0
    1.7862   -3.8900    0.0000 O   0  0  0  0  0  0  0  0  0  0  0  0
    1.7862   -2.2399    0.0000 O   0  0  0  0  0  0  0  0  0  0  0  0
   -1.0717   -1.4149    0.0000 O   0  0  0  0  0  0  0  0  0  0  0  0
   -1.0717   -4.7150    0.0000 O   0  0  0  0  0  0  0  0  0  0  0  0
   -1.7862   -2.6524    0.0000 O   0  0  0  0  0  0  0  0  0  0  0  0
    2.5007   -2.6524    0.0000 O   0  0  0  0  0  0  0  0  0  0  0  0
    1.0717   -1.0024    0.0000 O   0  0  0  0  0  0  0  0  0  0  0  0
   -2.5008   -1.4149    0.0000 O   0  0  0  0  0  0  0  0  0  0  0  0
   -1.7862   -7.6026    0.0000 O   0  0  0  0  0  0  0  0  0  0  0  0
   -4.6442   -3.4775    0.0000 O   0  0  0  0  0  0  0  0  0  0  0  0
    3.9297   -5.9525    0.0000 O   0  0  0  0  0  0  0  0  0  0  0  0
    1.0717   -7.6026    0.0000 O   0  0  0  0  0  0  0  0  0  0  0  0
   -3.2152   -5.9525    0.0000 O   0  0  0  0  0  0  0  0  0  0  0  0
    5.3586   -3.4775    0.0000 O   0  0  0  0  0  0  0  0  0  0  0  0
    4.6442   -1.4149    0.0000 O   0  0  0  0  0  0  0  0  0  0  0  0
   -0.3573   -8.4276    0.0000 O   0  0  0  0  0  0  0  0  0  0  0  0
   -4.6442   -5.1275    0.0000 O   0  0  0  0  0  0  0  0  0  0  0  0
    3.2151    1.0601    0.0000 O   0  0  0  0  0  0  0  0  0  0  0  0
    5.3586   -5.1275    0.0000 O   0  0  0  0  0  0  0  0  0  0  0  0
    4.6442    0.2351    0.0000 O   0  0  0  0  0  0  0  0  0  0  0  0
   -0.3573    1.4727    0.0000 O   0  0  0  0  0  0  0  0  0  0  0  0
   -3.2152    1.4727    0.0000 O   0  0  0  0  0  0  0  0  0  0  0  0
   -1.7862    2.2977    0.0000 O   0  0  0  0  0  0  0  0  0  0  0  0
   -1.0717   -8.8401    0.0000 O   0  0  0  0  0  0  0  0  0  0  0  0
   -5.3587   -4.7150    0.0000 O   0  0  0  0  0  0  0  0  0  0  0  0
    5.3586   -5.9525    0.0000 O   0  0  0  0  0  0  0  0  0  0  0  0
    5.3586   -0.1774    0.0000 O   0  0  0  0  0  0  0  0  0  0  0  0
   -1.0717    2.7102    0.0000 O   0  0  0  0  0  0  0  0  0  0  0  0
   -3.2152  -10.9026    0.0000 O   0  0  0  0  0  0  0  0  0  0  0  0
   -4.6442   -8.4276    0.0000 O   0  0  0  0  0  0  0  0  0  0  0  0
   -8.2166   -3.8900    0.0000 O   0  0  0  0  0  0  0  0  0  0  0  0
   -6.7876   -1.4149    0.0000 O   0  0  0  0  0  0  0  0  0  0  0  0
    6.0731   -8.8401    0.0000 O   0  0  0  0  0  0  0  0  0  0  0  0
    3.2151   -8.8401    0.0000 O   0  0  0  0  0  0  0  0  0  0  0  0
   -4.6442  -10.0776    0.0000 O   0  0  0  0  0  0  0  0  0  0  0  0
   -8.2166   -2.2399    0.0000 O   0  0  0  0  0  0  0  0  0  0  0  0
    8.2166   -1.0024    0.0000 O   0  0  0  0  0  0  0  0  0  0  0  0
    6.7876   -3.4775    0.0000 O   0  0  0  0  0  0  0  0  0  0  0  0
    4.6442   -9.6651    0.0000 O   0  0  0  0  0  0  0  0  0  0  0  0
    8.2166   -2.6524    0.0000 O   0  0  0  0  0  0  0  0  0  0  0  0
    1.0717    4.7727    0.0000 O   0  0  0  0  0  0  0  0  0  0  0  0
    2.5007    2.2977    0.0000 O   0  0  0  0  0  0  0  0  0  0  0  0
    2.5007    3.9477    0.0000 O   0  0  0  0  0  0  0  0  0  0  0  0
    0.3572   -3.8900    0.0000 C   0  0  0  0  0  0  0  0  0  0  0  0
   -0.3573   -3.4775    0.0000 C   0  0  0  0  0  0  0  0  0  0  0  0
    1.0717   -3.4775    0.0000 C   0  0  0  0  0  0  0  0  0  0  0  0
   -0.3573   -2.6524    0.0000 C   0  0  0  0  0  0  0  0  0  0  0  0
    1.0717   -2.6524    0.0000 C   0  0  0  0  0  0  0  0  0  0  0  0
   -1.0717   -2.2399    0.0000 C   0  0  0  0  0  0  0  0  0  0  0  0
   -0.3573   -5.1275    0.0000 C   0  0  0  0  0  0  0  0  0  0  0  0
   -1.7862   -3.4775    0.0000 C   0  0  0  0  0  0  0  0  0  0  0  0
    2.5007   -3.4775    0.0000 C   0  0  0  0  0  0  0  0  0  0  0  0
    1.7862   -1.4149    0.0000 C   0  0  0  0  0  0  0  0  0  0  0  0
   -0.3573   -5.9525    0.0000 C   0  0  0  0  0  0  0  0  0  0  0  0
   -2.5008   -3.8900    0.0000 C   0  0  0  0  0  0  0  0  0  0  0  0
    3.2151   -3.8900    0.0000 C   0  0  0  0  0  0  0  0  0  0  0  0
   -1.7862   -1.0024    0.0000 C   0  0  0  0  0  0  0  0  0  0  0  0
    2.5007   -1.0024    0.0000 C   0  0  0  0  0  0  0  0  0  0  0  0
   -1.7862   -0.1774    0.0000 C   0  0  0  0  0  0  0  0  0  0  0  0
   -1.0717   -6.3650    0.0000 C   0  0  0  0  0  0  0  0  0  0  0  0
   -3.2152   -3.4775    0.0000 C   0  0  0  0  0  0  0  0  0  0  0  0
    0.3572   -6.3650    0.0000 C   0  0  0  0  0  0  0  0  0  0  0  0
   -2.5008   -4.7150    0.0000 C   0  0  0  0  0  0  0  0  0  0  0  0
    3.2151   -4.7150    0.0000 C   0  0  0  0  0  0  0  0  0  0  0  0
    3.9297   -3.4775    0.0000 C   0  0  0  0  0  0  0  0  0  0  0  0
    3.2151   -1.4149    0.0000 C   0  0  0  0  0  0  0  0  0  0  0  0
    2.5007   -0.1774    0.0000 C   0  0  0  0  0  0  0  0  0  0  0  0
   -1.0717   -7.1900    0.0000 C   0  0  0  0  0  0  0  0  0  0  0  0
   -3.9297   -3.8900    0.0000 C   0  0  0  0  0  0  0  0  0  0  0  0
    0.3572   -7.1900    0.0000 C   0  0  0  0  0  0  0  0  0  0  0  0
   -3.2152   -5.1275    0.0000 C   0  0  0  0  0  0  0  0  0  0  0  0
    3.9297   -5.1275    0.0000 C   0  0  0  0  0  0  0  0  0  0  0  0
    4.6442   -3.8900    0.0000 C   0  0  0  0  0  0  0  0  0  0  0  0
   -1.0717    0.2351    0.0000 C   0  0  0  0  0  0  0  0  0  0  0  0
   -2.5008    0.2351    0.0000 C   0  0  0  0  0  0  0  0  0  0  0  0
   -0.3573   -7.6026    0.0000 C   0  0  0  0  0  0  0  0  0  0  0  0
   -3.9297   -4.7150    0.0000 C   0  0  0  0  0  0  0  0  0  0  0  0
    3.9297   -1.0024    0.0000 C   0  0  0  0  0  0  0  0  0  0  0  0
    3.2151    0.2351    0.0000 C   0  0  0  0  0  0  0  0  0  0  0  0
    4.6442   -4.7150    0.0000 C   0  0  0  0  0  0  0  0  0  0  0  0
    3.9297   -0.1774    0.0000 C   0  0  0  0  0  0  0  0  0  0  0  0
   -1.0717    1.0601    0.0000 C   0  0  0  0  0  0  0  0  0  0  0  0
   -2.5008    1.0601    0.0000 C   0  0  0  0  0  0  0  0  0  0  0  0
   -1.7862    1.4727    0.0000 C   0  0  0  0  0  0  0  0  0  0  0  0
   -1.7862   -8.4276    0.0000 C   0  0  0  0  0  0  0  0  0  0  0  0
   -5.3587   -3.8900    0.0000 C   0  0  0  0  0  0  0  0  0  0  0  0
    4.6442   -6.3650    0.0000 C   0  0  0  0  0  0  0  0  0  0  0  0
    5.3586   -1.0024    0.0000 C   0  0  0  0  0  0  0  0  0  0  0  0
   -2.5008   -8.8401    0.0000 C   0  0  0  0  0  0  0  0  0  0  0  0
   -6.0732   -3.4775    0.0000 C   0  0  0  0  0  0  0  0  0  0  0  0
   -0.3573    2.2977    0.0000 C   0  0  0  0  0  0  0  0  0  0  0  0
    4.6442   -7.1900    0.0000 C   0  0  0  0  0  0  0  0  0  0  0  0
    6.0731   -1.4149    0.0000 C   0  0  0  0  0  0  0  0  0  0  0  0
    0.3572    2.7102    0.0000 C   0  0  0  0  0  0  0  0  0  0  0  0
   -3.2152   -8.4276    0.0000 C   0  0  0  0  0  0  0  0  0  0  0  0
   -2.5008   -9.6651    0.0000 C   0  0  0  0  0  0  0  0  0  0  0  0
   -6.0732   -2.6524    0.0000 C   0  0  0  0  0  0  0  0  0  0  0  0
   -6.7876   -3.8900    0.0000 C   0  0  0  0  0  0  0  0  0  0  0  0
    3.9297   -7.6026    0.0000 C   0  0  0  0  0  0  0  0  0  0  0  0
    5.3586   -7.6026    0.0000 C   0  0  0  0  0  0  0  0  0  0  0  0
    6.0731   -2.2399    0.0000 C   0  0  0  0  0  0  0  0  0  0  0  0
    6.7876   -1.0024    0.0000 C   0  0  0  0  0  0  0  0  0  0  0  0
   -3.2152  -10.0776    0.0000 C   0  0  0  0  0  0  0  0  0  0  0  0
   -3.9297   -8.8401    0.0000 C   0  0  0  0  0  0  0  0  0  0  0  0
   -7.5021   -3.4775    0.0000 C   0  0  0  0  0  0  0  0  0  0  0  0
   -6.7876   -2.2399    0.0000 C   0  0  0  0  0  0  0  0  0  0  0  0
    5.3586   -8.4276    0.0000 C   0  0  0  0  0  0  0  0  0  0  0  0
    3.9297   -8.4276    0.0000 C   0  0  0  0  0  0  0  0  0  0  0  0
    1.0717    2.2977    0.0000 C   0  0  0  0  0  0  0  0  0  0  0  0
    0.3572    3.5352    0.0000 C   0  0  0  0  0  0  0  0  0  0  0  0
   -3.9297   -9.6651    0.0000 C   0  0  0  0  0  0  0  0  0  0  0  0
   -7.5021   -2.6524    0.0000 C   0  0  0  0  0  0  0  0  0  0  0  0
    7.5021   -1.4149    0.0000 C   0  0  0  0  0  0  0  0  0  0  0  0
    6.7876   -2.6524    0.0000 C   0  0  0  0  0  0  0  0  0  0  0  0
    4.6442   -8.8401    0.0000 C   0  0  0  0  0  0  0  0  0  0  0  0
    7.5021   -2.2399    0.0000 C   0  0  0  0  0  0  0  0  0  0  0  0
    1.0717    3.9477    0.0000 C   0  0  0  0  0  0  0  0  0  0  0  0
    1.7862    2.7102    0.0000 C   0  0  0  0  0  0  0  0  0  0  0  0
    1.7862    3.5352    0.0000 C   0  0  0  0  0  0  0  0  0  0  0  0
   -0.0858   -4.1457    0.0000 H   0  0  0  0  0  0  0  0  0  0  0  0
   -0.8002   -3.2217    0.0000 H   0  0  0  0  0  0  0  0  0  0  0  0
    1.5147   -3.2217    0.0000 H   0  0  0  0  0  0  0  0  0  0  0  0
   -0.3573   -2.1409    0.0000 H   0  0  0  0  0  0  0  0  0  0  0  0
    1.0717   -2.1409    0.0000 H   0  0  0  0  0  0  0  0  0  0  0  0
   -1.5755   -2.1511    0.0000 H   0  0  0  0  0  0  0  0  0  0  0  0
   -1.2467   -2.7206    0.0000 H   0  0  0  0  0  0  0  0  0  0  0  0
   -1.5148   -6.1093    0.0000 H   0  0  0  0  0  0  0  0  0  0  0  0
   -3.2152   -2.9659    0.0000 H   0  0  0  0  0  0  0  0  0  0  0  0
    0.8002   -6.1093    0.0000 H   0  0  0  0  0  0  0  0  0  0  0  0
   -2.0577   -4.9707    0.0000 H   0  0  0  0  0  0  0  0  0  0  0  0
    2.7722   -4.9707    0.0000 H   0  0  0  0  0  0  0  0  0  0  0  0
    3.9297   -2.9659    0.0000 H   0  0  0  0  0  0  0  0  0  0  0  0
    3.2151   -1.9264    0.0000 H   0  0  0  0  0  0  0  0  0  0  0  0
    2.0577    0.0784    0.0000 H   0  0  0  0  0  0  0  0  0  0  0  0
   -0.6288   -0.0206    0.0000 H   0  0  0  0  0  0  0  0  0  0  0  0
   -2.9437   -0.0206    0.0000 H   0  0  0  0  0  0  0  0  0  0  0  0
    1.5147   -7.3468    0.0000 H   0  0  0  0  0  0  0  0  0  0  0  0
   -3.6582   -6.2083    0.0000 H   0  0  0  0  0  0  0  0  0  0  0  0
    5.8017   -3.7332    0.0000 H   0  0  0  0  0  0  0  0  0  0  0  0
    0.0858   -8.6833    0.0000 H   0  0  0  0  0  0  0  0  0  0  0  0
   -4.6442   -5.6390    0.0000 H   0  0  0  0  0  0  0  0  0  0  0  0
    2.7722    1.3159    0.0000 H   0  0  0  0  0  0  0  0  0  0  0  0
    5.8017   -4.8717    0.0000 H   0  0  0  0  0  0  0  0  0  0  0  0
    4.6442    0.7466    0.0000 H   0  0  0  0  0  0  0  0  0  0  0  0
   -3.6582    1.2169    0.0000 H   0  0  0  0  0  0  0  0  0  0  0  0
   -2.2292    2.5534    0.0000 H   0  0  0  0  0  0  0  0  0  0  0  0
   -3.2152   -7.9160    0.0000 H   0  0  0  0  0  0  0  0  0  0  0  0
   -2.0577   -9.9208    0.0000 H   0  0  0  0  0  0  0  0  0  0  0  0
   -5.6301   -2.3967    0.0000 H   0  0  0  0  0  0  0  0  0  0  0  0
   -6.7876   -4.4015    0.0000 H   0  0  0  0  0  0  0  0  0  0  0  0
    3.4866   -7.3468    0.0000 H   0  0  0  0  0  0  0  0  0  0  0  0
    5.8017   -7.3468    0.0000 H   0  0  0  0  0  0  0  0  0  0  0  0
    5.6301   -2.4957    0.0000 H   0  0  0  0  0  0  0  0  0  0  0  0
    6.7876   -0.4909    0.0000 H   0  0  0  0  0  0  0  0  0  0  0  0
    1.0717    1.7862    0.0000 H   0  0  0  0  0  0  0  0  0  0  0  0
   -0.0858    3.7910    0.0000 H   0  0  0  0  0  0  0  0  0  0  0  0
   -2.7723  -11.1584    0.0000 H   0  0  0  0  0  0  0  0  0  0  0  0
   -5.0872   -8.6833    0.0000 H   0  0  0  0  0  0  0  0  0  0  0  0
   -8.2166   -4.4015    0.0000 H   0  0  0  0  0  0  0  0  0  0  0  0
   -7.2307   -1.1592    0.0000 H   0  0  0  0  0  0  0  0  0  0  0  0
    6.5161   -8.5843    0.0000 H   0  0  0  0  0  0  0  0  0  0  0  0
    3.2151   -9.3516    0.0000 H   0  0  0  0  0  0  0  0  0  0  0  0
   -4.6442  -10.5891    0.0000 H   0  0  0  0  0  0  0  0  0  0  0  0
   -8.6596   -2.4957    0.0000 H   0  0  0  0  0  0  0  0  0  0  0  0
    8.2166   -0.4909    0.0000 H   0  0  0  0  0  0  0  0  0  0  0  0
    7.2306   -3.7332    0.0000 H   0  0  0  0  0  0  0  0  0  0  0  0
    5.0871   -9.9208    0.0000 H   0  0  0  0  0  0  0  0  0  0  0  0
    8.6596   -2.3967    0.0000 H   0  0  0  0  0  0  0  0  0  0  0  0
    0.6287    5.0285    0.0000 H   0  0  0  0  0  0  0  0  0  0  0  0
    2.9437    2.5534    0.0000 H   0  0  0  0  0  0  0  0  0  0  0  0
    2.5007    4.4592    0.0000 H   0  0  0  0  0  0  0  0  0  0  0  0
    0.3572   10.9026    0.0000 N   0  0  0  0  0  0  0  0  0  0  0  0
    0.3572   10.0776    0.0000 C   0  0  0  0  0  0  0  0  0  0  0  0
   -0.3573    9.6651    0.0000 C   0  0  0  0  0  0  0  0  0  0  0  0
   -0.3573    8.8401    0.0000 C   0  0  0  0  0  0  0  0  0  0  0  0
    1.0717    9.6651    0.0000 C   0  0  0  0  0  0  0  0  0  0  0  0
   -1.0717    8.4276    0.0000 C   0  0  0  0  0  0  0  0  0  0  0  0
    0.3572    8.4276    0.0000 C   0  0  0  0  0  0  0  0  0  0  0  0
   -1.0717    7.6025    0.0000 C   0  0  0  0  0  0  0  0  0  0  0  0
    0.3572    7.6025    0.0000 C   0  0  0  0  0  0  0  0  0  0  0  0
   -0.3573    7.1900    0.0000 C   0  0  0  0  0  0  0  0  0  0  0  0
    0.8002   10.3334    0.0000 H   0  0  0  0  0  0  0  0  0  0  0  0
   -0.5322   10.1457    0.0000 H   0  0  0  0  0  0  0  0  0  0  0  0
   -0.8610    9.5762    0.0000 H   0  0  0  0  0  0  0  0  0  0  0  0
    0.8160    9.2221    0.0000 H   0  0  0  0  0  0  0  0  0  0  0  0
    1.5147    9.4093    0.0000 H   0  0  0  0  0  0  0  0  0  0  0  0
    1.3275   10.1080    0.0000 H   0  0  0  0  0  0  0  0  0  0  0  0
   -1.5148    8.6833    0.0000 H   0  0  0  0  0  0  0  0  0  0  0  0
    0.8002    8.6833    0.0000 H   0  0  0  0  0  0  0  0  0  0  0  0
    0.8002   11.1584    0.0000 H   0  0  0  0  0  0  0  0  0  0  0  0
   -0.0858   11.1584    0.0000 H   0  0  0  0  0  0  0  0  0  0  0  0
   -1.5148    7.3468    0.0000 H   0  0  0  0  0  0  0  0  0  0  0  0
    0.8002    7.3468    0.0000 H   0  0  0  0  0  0  0  0  0  0  0  0
   -0.3573    6.6785    0.0000 H   0  0  0  0  0  0  0  0  0  0  0  0
  1  2  2  0
  1  3  1  0
  1  4  1  0
  2  5  1  0
  2  6  1  0
  3  7  1  0
  3  8  2  0
  4  9  1  0
  5 10  1  0
  5 11  1  0
  7 12  1  0
  9 13  1  0
 10 14  2  0
  6  9  2  0
  7 10  1  0
 15 16  1  0
 15 17  1  0
 15 18  1  0
 16 19  1  0
 16 20  2  0
 17 21  2  0
 17 22  1  0
 18 23  1  0
 19 24  2  0
 20 25  1  0
 21 26  1  0
 22 27  2  0
 24 28  1  0
 26 29  2  0
 25 28  2  0
 27 29  1  0
 23 30  1  0
 30 31  1  0
 31 32  1  0
 31 33  1  0
 34 35  1  0
 36 37  1  0
 38 39  1  0
 39 40  2  0
 40 41  1  0
 41 42  2  0
 42 43  1  0
 38 43  2  0
 37 38  1  0
 44 45  1  0
 45 46  2  0
 46 47  1  0
 47 48  2  0
 48 49  1  0
 44 49  2  0
 37 44  1  0
 35 36  1  0
 34 50  1  0
 50 51  1  0
 50 52  1  0
 53102  1  0
 53103  1  0
 99 54  1  0
 54105  1  0
100 55  1  0
 55106  1  0
101 56  1  0
 56107  1  0
103 57  1  0
 57108  1  0
 58104  1  0
 58112  1  0
 59105  2  0
 60106  2  0
 61107  2  0
 62108  2  0
 63112  2  0
 64123  1  0
 64140  1  0
 65124  1  0
 65141  1  0
 66127  1  0
 66142  1  0
 67125  1  0
 67192  1  0
 68126  1  0
 68193  1  0
 69128  1  0
 69194  1  0
 70133  1  0
 70143  1  0
 71131  1  0
 71195  1  0
 72132  1  0
 72196  1  0
 73134  1  0
 73197  1  0
 74135  1  0
 74198  1  0
 75136  1  0
 75199  1  0
 76137  1  0
 76146  1  0
 77138  1  0
 77200  1  0
 78139  1  0
 78201  1  0
 79140  2  0
 80141  2  0
 81142  2  0
 82143  2  0
 83146  2  0
 84158  1  0
 84212  1  0
 85159  1  0
 85213  1  0
 86160  1  0
 86214  1  0
 87161  1  0
 87215  1  0
 88162  1  0
 88216  1  0
 89163  1  0
 89217  1  0
 90166  1  0
 90218  1  0
 91167  1  0
 91219  1  0
 92168  1  0
 92220  1  0
 93169  1  0
 93221  1  0
 94170  1  0
 94222  1  0
 95171  1  0
 95223  1  0
 96172  1  0
 96224  1  0
 97173  1  0
 97225  1  0
 98174  1  0
 98226  1  0
 99100  1  0
 99101  1  0
 99175  1  6
100102  1  0
100176  1  1
101103  1  0
101177  1  1
102104  1  0
102178  1  6
103179  1  6
104180  1  0
104181  1  0
105109  1  0
106110  1  0
107111  1  0
108113  1  0
109115  1  0
109117  2  0
110116  1  0
110118  2  0
111119  1  0
111120  2  0
112114  1  0
113121  1  0
113122  2  0
114129  1  0
114130  2  0
115123  2  0
115182  1  0
116124  2  0
116183  1  0
117125  1  0
117184  1  0
118126  1  0
118185  1  0
119127  2  0
119186  1  0
120128  1  0
120187  1  0
121133  2  0
121188  1  0
122134  1  0
122189  1  0
123131  1  0
124132  1  0
125131  2  0
126132  2  0
127135  1  0
128135  2  0
129137  2  0
129190  1  0
130138  1  0
130191  1  0
133136  1  0
134136  2  0
137139  1  0
138139  2  0
140144  1  0
141145  1  0
142147  1  0
143148  1  0
144150  2  0
144151  1  0
145152  2  0
145153  1  0
146149  1  0
147154  2  0
147155  1  0
148156  2  0
148157  1  0
149164  2  0
149165  1  0
150159  1  0
150202  1  0
151158  2  0
151203  1  0
152161  1  0
152204  1  0
153160  2  0
153205  1  0
154163  1  0
154206  1  0
155162  2  0
155207  1  0
156169  1  0
156208  1  0
157168  2  0
157209  1  0
158166  1  0
159166  2  0
160167  1  0
161167  2  0
162170  1  0
163170  2  0
164173  1  0
164210  1  0
165172  2  0
165211  1  0
168171  1  0
169171  2  0
172174  1  0
173174  2  0
228227  1  0
227245  1  0
227246  1  0
228229  1  0
228231  1  0
228237  1  6
229230  1  0
229238  1  0
229239  1  0
230232  2  0
230233  1  0
231240  1  0
231241  1  0
231242  1  0
232234  1  0
232243  1  0
233235  2  0
233244  1  0
234236  2  0
234247  1  0
235236  1  0
235248  1  0
236249  1  0
V   53 0
V   54 1
V   55 2
V   56 3
V   57 4
V   58 5
V   59 6
V   60 7
V   61 8
V   62 9
V   63 10
V   64 11
V   65 12
V   66 13
V   67 14
V   68 15
V   69 16
V   70 17
V   71 18
V   72 19
V   73 20
V   74 21
V   75 22
V   76 23
V   77 24
V   78 25
V   79 26
V   80 27
V   81 28
V   82 29
V   83 30
V   84 31
V   85 32
V   86 33
V   87 34
V   88 35
V   89 36
V   90 37
V   91 38
V   92 39
V   93 40
V   94 41
V   95 42
V   96 43
V   97 44
V   98 45
V   99 47
V  100 48
V  101 49
V  102 50
V  103 51
V  104 52
V  105 53
V  106 54
V  107 55
V  108 56
V  109 57
V  110 58
V  111 59
V  112 60
V  113 61
V  114 62
V  115 63
V  116 64
V  117 65
V  118 66
V  119 67
V  120 68
V  121 69
V  122 70
V  123 71
V  124 72
V  125 73
V  126 74
V  127 75
V  128 76
V  129 77
V  130 78
V  131 79
V  132 80
V  133 81
V  134 82
V  135 83
V  136 84
V  137 85
V  138 86
V  139 87
V  140 88
V  141 89
V  142 90
V  143 91
V  144 92
V  145 93
V  146 94
V  147 95
V  148 96
V  149 97
V  150 98
V  151 99
V  152 100
V  153 101
V  154 102
V  155 103
V  156 104
V  157 105
V  158 106
V  159 107
V  160 108
V  161 109
V  162 110
V  163 111
V  164 112
V  165 113
V  166 114
V  167 115
V  168 116
V  169 117
V  170 118
V  171 119
V  172 120
V  173 121
V  174 122
V  175 132
V  176 133
V  177 134
V  178 135
V  179 136
V  180 137
V  181 138
V  182 139
V  183 140
V  184 141
V  185 142
V  186 143
V  187 144
V  188 145
V  189 146
V  190 147
V  191 148
V  192 149
V  193 150
V  194 151
V  195 152
V  196 153
V  197 154
V  198 155
V  199 156
V  200 157
V  201 158
V  202 159
V  203 160
V  204 161
V  205 162
V  206 163
V  207 164
V  208 165
V  209 166
V  210 167
V  211 168
V  212 169
V  213 170
V  214 171
V  215 172
V  216 173
V  217 174
V  218 175
V  219 176
V  220 177
V  221 178
V  222 179
V  223 180
V  224 181
V  225 182
V  226 183
V  227 46
V  228 123
V  229 124
V  230 125
V  231 126
V  232 127
V  233 128
V  234 129
V  235 130
V  236 131
V  237 184
V  238 185
V  239 186
V  240 187
V  241 188
V  242 189
V  243 190
V  244 191
V  245 192
V  246 193
V  247 194
V  248 195
V  249 196
M  END
