 
     RDKit          2D

 84 93  0  0  1  0  0  0  0  0999 V2000
   20.1138  -19.1608    0.0000 C   0  0  0  0  0  0  0  0  0  0  0  0
   20.4419  -17.9891    0.0000 C   0  0  0  0  0  0  0  0  0  0  0  0
   21.2855  -18.8796    0.0000 C   0  0  0  0  0  0  0  0  0  0  0  0
   21.6136  -17.7079    0.0000 C   0  0  0  0  0  0  0  0  0  0  0  0
   20.3482  -16.3956    0.0000 N   0  0  0  0  0  0  0  0  0  0  0  0
   23.1602  -18.8796    0.0000 C   0  0  0  0  0  0  0  0  0  0  0  0
   22.8790  -17.7079    0.0000 C   0  0  0  0  0  0  0  0  0  0  0  0
   24.1913  -19.4420    0.0000 C   0  0  0  0  0  0  0  0  0  0  0  0
   25.2693  -20.3325    0.0000 O   0  0  0  0  0  0  0  0  0  0  0  0
   26.4879  -20.3325    0.0000 C   0  0  0  0  0  0  0  0  0  0  0  0
   27.0972  -19.2545    0.0000 C   0  0  0  0  0  0  0  0  0  0  0  0
   27.0972  -21.4573    0.0000 O   0  0  0  0  0  0  0  0  0  0  0  0
   28.3158  -19.2545    0.0000 C   0  0  0  0  0  0  0  0  0  0  0  0
   26.4879  -18.2234    0.0000 C   0  0  0  0  0  0  0  0  0  0  0  0
   27.0972  -17.1455    0.0000 O   0  0  0  0  0  0  0  0  0  0  0  0
   29.0220  -20.4782    0.0000 C   0  0  0  0  0  0  0  0  0  0  0  0
   30.4220  -20.4785    0.0000 C   0  0  0  0  0  0  0  0  0  0  0  0
   31.1222  -19.2662    0.0000 C   0  0  0  0  0  0  0  0  0  0  0  0
   30.4161  -18.0425    0.0000 C   0  0  0  0  0  0  0  0  0  0  0  0
   29.0161  -18.0422    0.0000 C   0  0  0  0  0  0  0  0  0  0  0  0
   19.5991  -15.2114    0.0000 C   0  0  0  0  0  0  0  0  0  0  0  0
   20.1138  -19.1608    0.0000 C   0  0  0  0  0  0  0  0  0  0  0  0
   20.4419  -17.9891    0.0000 C   0  0  0  0  0  0  0  0  0  0  0  0
   21.2855  -18.8796    0.0000 C   0  0  0  0  0  0  0  0  0  0  0  0
   21.6136  -17.7079    0.0000 C   0  0  0  0  0  0  0  0  0  0  0  0
   20.3482  -16.3956    0.0000 N   0  0  0  0  0  0  0  0  0  0  0  0
   23.1602  -18.8796    0.0000 C   0  0  0  0  0  0  0  0  0  0  0  0
   22.8790  -17.7079    0.0000 C   0  0  0  0  0  0  0  0  0  0  0  0
   24.1913  -19.4420    0.0000 C   0  0  0  0  0  0  0  0  0  0  0  0
   25.2693  -20.3325    0.0000 O   0  0  0  0  0  0  0  0  0  0  0  0
   26.4879  -20.3325    0.0000 C   0  0  0  0  0  0  0  0  0  0  0  0
   27.0972  -19.2545    0.0000 C   0  0  0  0  0  0  0  0  0  0  0  0
   27.0972  -21.4573    0.0000 O   0  0  0  0  0  0  0  0  0  0  0  0
   28.3158  -19.2545    0.0000 C   0  0  0  0  0  0  0  0  0  0  0  0
   26.4879  -18.2234    0.0000 C   0  0  0  0  0  0  0  0  0  0  0  0
   27.0972  -17.1455    0.0000 O   0  0  0  0  0  0  0  0  0  0  0  0
   29.0220  -20.4782    0.0000 C   0  0  0  0  0  0  0  0  0  0  0  0
   30.4220  -20.4785    0.0000 C   0  0  0  0  0  0  0  0  0  0  0  0
   31.1222  -19.2662    0.0000 C   0  0  0  0  0  0  0  0  0  0  0  0
   30.4161  -18.0425    0.0000 C   0  0  0  0  0  0  0  0  0  0  0  0
   29.0161  -18.0422    0.0000 C   0  0  0  0  0  0  0  0  0  0  0  0
   19.5991  -15.2114    0.0000 C   0  0  0  0  0  0  0  0  0  0  0  0
   28.2247  -18.2051    0.0000 O   0  0  0  0  0  0  0  0  0  0  0  0
   29.5577  -18.1651    0.0000 C   0  0  0  0  0  0  0  0  0  0  0  0
   30.2335  -17.1057    0.0000 C   0  0  0  0  0  0  0  0  0  0  0  0
   30.1877  -19.4014    0.0000 O   0  0  0  0  0  0  0  0  0  0  0  0
   31.5609  -17.0599    0.0000 C   0  0  0  0  0  0  0  0  0  0  0  0
   29.5978  -15.9393    0.0000 C   0  0  0  0  0  0  0  0  0  0  0  0
   32.1982  -18.2890    0.0000 C   0  0  0  0  0  0  0  0  0  0  0  0
   32.2502  -15.9760    0.0000 C   0  0  0  0  0  0  0  0  0  0  0  0
   30.2866  -14.8114    0.0000 O   0  0  0  0  0  0  0  0  0  0  0  0
   33.5428  -18.2493    0.0000 C   0  0  0  0  0  0  0  0  0  0  0  0
   33.5949  -15.9504    0.0000 C   0  0  0  0  0  0  0  0  0  0  0  0
   34.2502  -17.1975    0.0000 C   0  0  0  0  0  0  0  0  0  0  0  0
   27.5123  -16.9712    0.0000 C   0  0  0  0  0  0  0  0  0  0  0  0
   26.5013  -15.4468    0.0000 C   0  0  0  0  0  0  0  0  0  0  0  0
   26.5013  -16.4926    0.0000 C   0  0  0  0  0  0  0  0  0  0  0  0
   25.0349  -15.4468    0.0000 C   0  0  0  0  0  0  0  0  0  0  0  0
   24.9592  -16.4926    0.0000 C   0  0  0  0  0  0  0  0  0  0  0  0
   24.1998  -14.5173    0.0000 N   0  0  0  0  0  0  0  0  0  0  0  0
   24.0089  -16.0606    0.0000 C   0  0  0  0  0  0  0  0  0  0  0  0
   23.4578  -17.1611    0.0000 C   0  0  0  0  0  0  0  0  0  0  0  0
   26.9500  -18.0600    0.0000 C   0  0  0  0  0  0  0  0  0  0  0  0
   27.2300  -16.8700    0.0000 C   0  0  0  0  0  0  0  0  0  0  0  0
   28.0700  -17.7800    0.0000 C   0  0  0  0  0  0  0  0  0  0  0  0
   25.9000  -16.6600    0.0000 O   0  0  0  0  0  0  0  0  0  0  0  0
   28.4200  -16.5900    0.0000 C   0  0  0  0  0  0  0  0  0  0  0  0
   27.1600  -15.2600    0.0000 N   0  0  0  0  0  0  0  0  0  0  0  0
   29.9600  -17.7800    0.0000 C   0  0  0  0  0  0  0  0  0  0  0  0
   29.6800  -16.5900    0.0000 C   0  0  0  0  0  0  0  0  0  0  0  0
   27.1600  -13.9300    0.0000 C   0  0  0  0  0  0  0  0  0  0  0  0
   30.9400  -18.2700    0.0000 C   0  0  0  0  0  0  0  0  0  0  0  0
   31.9900  -19.1800    0.0000 O   0  0  0  0  0  0  0  0  0  0  0  0
   33.3900  -19.1800    0.0000 C   0  0  0  0  0  0  0  0  0  0  0  0
   34.0900  -20.3700    0.0000 O   0  0  0  0  0  0  0  0  0  0  0  0
   34.0900  -17.9900    0.0000 C   0  0  0  0  0  0  0  0  0  0  0  0
   35.4900  -17.9900    0.0000 C   0  0  0  0  0  0  0  0  0  0  0  0
   36.1900  -19.1800    0.0000 C   0  0  0  0  0  0  0  0  0  0  0  0
   37.5900  -19.1800    0.0000 C   0  0  0  0  0  0  0  0  0  0  0  0
   38.2900  -17.9900    0.0000 C   0  0  0  0  0  0  0  0  0  0  0  0
   37.5900  -16.8000    0.0000 C   0  0  0  0  0  0  0  0  0  0  0  0
   36.1900  -16.8000    0.0000 C   0  0  0  0  0  0  0  0  0  0  0  0
   33.3900  -16.7300    0.0000 C   0  0  0  0  0  0  0  0  0  0  0  0
   34.0900  -15.5400    0.0000 O   0  0  0  0  0  0  0  0  0  0  0  0
  1  2  1  0
  3  1  1  6
  4  2  1  1
  3  5  1  0
  3  6  1  0
  4  7  1  0
  6  8  1  0
  8  9  1  6
  9 10  1  0
 10 11  1  0
 10 12  2  0
 11 13  1  0
 11 14  1  6
 14 15  1  0
  4  5  1  0
  7  8  1  0
 13 16  2  0
 16 17  1  0
 17 18  2  0
 18 19  1  0
 19 20  2  0
 13 20  1  0
  5 21  1  0
 22 23  1  0
 24 22  1  6
 25 23  1  1
 24 26  1  0
 24 27  1  0
 25 28  1  0
 27 29  1  0
 29 30  1  6
 30 31  1  0
 31 32  1  0
 31 33  2  0
 32 34  1  0
 32 35  1  0
 35 36  1  0
 25 26  1  0
 28 29  1  0
 34 37  2  0
 37 38  1  0
 38 39  2  0
 39 40  1  0
 40 41  2  0
 34 41  1  0
 26 42  1  0
 48 51  1  0
 49 52  2  0
 50 53  1  0
 52 54  1  0
 53 54  2  0
 43 44  1  0
 44 45  1  0
 44 46  2  0
 45 47  1  0
 45 48  1  6
 47 49  1  0
 47 50  2  0
 55 56  1  0
 55 57  1  0
 56 58  1  0
 57 59  1  0
 58 60  1  0
 58 61  1  0
 59 62  1  0
 59 60  1  0
 61 62  1  0
 55 43  1  0
 63 64  1  0
 63 65  1  0
 63 66  1  0
 64 67  1  0
 65 68  1  0
 65 69  1  6
 67 70  1  1
 68 71  1  0
 69 72  1  0
 72 73  1  6
 64 66  1  0
 67 68  1  0
 70 72  1  0
 73 74  1  0
 74 75  2  0
 74 76  1  0
 76 77  1  0
 77 78  2  0
 78 79  1  0
 79 80  2  0
 80 81  1  0
 81 82  2  0
 77 82  1  0
 76 83  1  6
 83 84  1  0
M  END
