52918379
     RDKit          2D

 68 71  0  0  1  0  0  0  0  0999 V2000
   13.1488   17.8777    0.0000 O   0  0  0  0  0  0  0  0  0  0  0  0
   13.1488    5.5369    0.0000 O   0  0  0  0  0  0  0  0  0  0  0  0
   12.2828   17.3777    0.0000 O   0  0  0  0  0  0  0  0  0  0  0  0
   12.2828    5.0369    0.0000 O   0  0  0  0  0  0  0  0  0  0  0  0
   16.6408   18.8430    0.0000 O   0  0  0  0  0  0  0  0  0  0  0  0
   16.6408    6.5023    0.0000 O   0  0  0  0  0  0  0  0  0  0  0  0
   16.6408   20.9123    0.0000 O   0  0  0  0  0  0  0  0  0  0  0  0
   16.6408    8.5716    0.0000 O   0  0  0  0  0  0  0  0  0  0  0  0
    2.2690   10.0849    0.0000 O   0  0  0  0  0  0  0  0  0  0  0  0
    3.1350   12.5849    0.0000 O   0  0  0  0  0  0  0  0  0  0  0  0
    0.5369   11.0849    0.0000 O   0  0  0  0  0  0  0  0  0  0  0  0
    4.8671   11.5849    0.0000 O   0  0  0  0  0  0  0  0  0  0  0  0
    1.4030   12.5849    0.0000 O   0  0  0  0  0  0  0  0  0  0  0  0
    4.0010   10.0849    0.0000 O   0  0  0  0  0  0  0  0  0  0  0  0
   11.4168   20.8777    0.0000 N   0  0  0  0  0  0  0  0  0  0  0  0
   11.4168    8.5369    0.0000 N   0  0  0  0  0  0  0  0  0  0  0  0
   11.4168   18.8777    0.0000 N   0  0  0  0  0  0  0  0  0  0  0  0
   11.4168    6.5369    0.0000 N   0  0  0  0  0  0  0  0  0  0  0  0
   11.3122   21.8722    0.0000 C   0  0  0  0  0  0  0  0  0  0  0  0
   10.5032   20.4710    0.0000 C   0  0  0  0  0  0  0  0  0  0  0  0
   11.3122    9.5315    0.0000 C   0  0  0  0  0  0  0  0  0  0  0  0
   10.5032    8.1302    0.0000 C   0  0  0  0  0  0  0  0  0  0  0  0
   10.3341   22.0801    0.0000 C   0  0  0  0  0  0  0  0  0  0  0  0
    9.8341   21.2141    0.0000 C   0  0  0  0  0  0  0  0  0  0  0  0
   10.3341    9.7394    0.0000 C   0  0  0  0  0  0  0  0  0  0  0  0
    9.8341    8.8733    0.0000 C   0  0  0  0  0  0  0  0  0  0  0  0
   12.2828   20.3777    0.0000 C   0  0  0  0  0  0  0  0  0  0  0  0
   12.2828    8.0369    0.0000 C   0  0  0  0  0  0  0  0  0  0  0  0
   12.2828   19.3777    0.0000 C   0  0  0  0  0  0  0  0  0  0  0  0
   12.2828    7.0369    0.0000 C   0  0  0  0  0  0  0  0  0  0  0  0
   13.1488   18.8777    0.0000 C   0  0  0  0  0  0  0  0  0  0  0  0
   13.1488    6.5369    0.0000 C   0  0  0  0  0  0  0  0  0  0  0  0
   14.0148   19.3777    0.0000 C   0  0  0  0  0  0  0  0  0  0  0  0
   14.0148    7.0369    0.0000 C   0  0  0  0  0  0  0  0  0  0  0  0
   11.4168   17.8777    0.0000 C   0  0  0  0  0  0  0  0  0  0  0  0
   11.4168    5.5369    0.0000 C   0  0  0  0  0  0  0  0  0  0  0  0
   10.5507   17.3777    0.0000 C   0  0  0  0  0  0  0  0  0  0  0  0
   10.5507    5.0369    0.0000 C   0  0  0  0  0  0  0  0  0  0  0  0
   14.8809   18.8777    0.0000 C   0  0  0  0  0  0  0  0  0  0  0  0
   14.8809    6.5369    0.0000 C   0  0  0  0  0  0  0  0  0  0  0  0
   14.0148   20.3777    0.0000 C   0  0  0  0  0  0  0  0  0  0  0  0
   14.0148    8.0369    0.0000 C   0  0  0  0  0  0  0  0  0  0  0  0
   10.5507   16.3777    0.0000 C   0  0  0  0  0  0  0  0  0  0  0  0
   10.5507    4.0369    0.0000 C   0  0  0  0  0  0  0  0  0  0  0  0
   15.7469   19.3777    0.0000 C   0  0  0  0  0  0  0  0  0  0  0  0
   15.7469    7.0369    0.0000 C   0  0  0  0  0  0  0  0  0  0  0  0
    9.6847   15.8777    0.0000 C   0  0  0  0  0  0  0  0  0  0  0  0
    9.6847    3.5369    0.0000 C   0  0  0  0  0  0  0  0  0  0  0  0
   14.8809   20.8777    0.0000 C   0  0  0  0  0  0  0  0  0  0  0  0
   14.8809    8.5369    0.0000 C   0  0  0  0  0  0  0  0  0  0  0  0
   15.7469   20.3777    0.0000 C   0  0  0  0  0  0  0  0  0  0  0  0
   15.7469    8.0369    0.0000 C   0  0  0  0  0  0  0  0  0  0  0  0
    9.6847   14.8777    0.0000 C   0  0  0  0  0  0  0  0  0  0  0  0
    9.6847    2.5369    0.0000 C   0  0  0  0  0  0  0  0  0  0  0  0
    8.8187   14.3777    0.0000 C   0  0  0  0  0  0  0  0  0  0  0  0
    8.8187    2.0369    0.0000 C   0  0  0  0  0  0  0  0  0  0  0  0
   17.5469   19.3569    0.0000 C   0  0  0  0  0  0  0  0  0  0  0  0
   17.5469    7.0161    0.0000 C   0  0  0  0  0  0  0  0  0  0  0  0
   17.5469   20.3985    0.0000 C   0  0  0  0  0  0  0  0  0  0  0  0
   17.5469    8.0578    0.0000 C   0  0  0  0  0  0  0  0  0  0  0  0
    8.8187   13.3777    0.0000 C   0  0  0  0  0  0  0  0  0  0  0  0
    8.8187    1.0369    0.0000 C   0  0  0  0  0  0  0  0  0  0  0  0
    7.9527   12.8777    0.0000 C   0  0  0  0  0  0  0  0  0  0  0  0
    7.9527    0.5369    0.0000 C   0  0  0  0  0  0  0  0  0  0  0  0
    2.2690   11.0849    0.0000 C   0  0  0  0  0  0  0  0  0  0  0  0
    3.1350   11.5849    0.0000 C   0  0  0  0  0  0  0  0  0  0  0  0
    1.4030   11.5849    0.0000 C   0  0  0  0  0  0  0  0  0  0  0  0
    4.0010   11.0849    0.0000 C   0  0  0  0  0  0  0  0  0  0  0  0
 31  1  1  1
 32  2  1  1
  3 35  2  0
  4 36  2  0
  5 45  1  0
  5 57  1  0
  6 46  1  0
  6 58  1  0
  7 51  1  0
  7 59  1  0
  8 52  1  0
  8 60  1  0
 65  9  1  1
 66 10  1  1
 11 67  1  0
 12 68  1  0
 13 67  2  0
 14 68  2  0
 15 19  1  0
 15 20  1  0
 15 27  1  0
 16 21  1  0
 16 22  1  0
 16 28  1  0
 29 17  1  0
 17 35  1  0
 30 18  1  0
 18 36  1  0
 19 23  1  0
 20 24  1  0
 21 25  1  0
 22 26  1  0
 23 24  1  0
 25 26  1  0
 29 27  1  6
 30 28  1  6
 29 31  1  0
 30 32  1  0
 31 33  1  0
 32 34  1  0
 33 39  2  0
 33 41  1  0
 34 40  2  0
 34 42  1  0
 35 37  1  0
 36 38  1  0
 37 43  1  0
 38 44  1  0
 39 45  1  0
 40 46  1  0
 41 49  2  0
 42 50  2  0
 43 47  1  0
 44 48  1  0
 45 51  2  0
 46 52  2  0
 47 53  1  0
 48 54  1  0
 49 51  1  0
 50 52  1  0
 53 55  1  0
 54 56  1  0
 55 61  1  0
 56 62  1  0
 57 59  1  0
 58 60  1  0
 61 63  1  0
 62 64  1  0
 65 66  1  0
 65 67  1  0
 66 68  1  0
M  END
