168322462
     RDKit          2D

108115  0  0  1  0  0  0  0  0999 V2000
    8.0622  -11.6398    0.0000 I   0  0  0  0  0  0  0  0  0  0  0  0
   10.6603   -9.1398    0.0000 S   0  0  0  0  0  0  0  0  0  0  0  0
   17.7001   -1.1737    0.0000 S   0  0  0  0  0  0  0  0  0  0  0  0
   18.1869   -0.3002    0.0000 S   0  0  0  0  0  0  0  0  0  0  0  0
   17.5885   -9.1398    0.0000 O   0  0  0  0  0  0  0  0  0  0  0  0
   18.4545   -7.6398    0.0000 O   0  0  0  0  0  0  0  0  0  0  0  0
   20.1865  -10.6398    0.0000 O   0  0  0  0  0  0  0  0  0  0  0  0
   16.7224   -5.6398    0.0000 O   0  0  0  0  0  0  0  0  0  0  0  0
   18.4545   -5.6398    0.0000 O   0  0  0  0  0  0  0  0  0  0  0  0
   16.7224   -8.6398    0.0000 O   0  0  0  0  0  0  0  0  0  0  0  0
   14.1244   -7.1398    0.0000 O   0  0  0  0  0  0  0  0  0  0  0  0
   13.2583   -8.6398    0.0000 O   0  0  0  0  0  0  0  0  0  0  0  0
   17.4545  -12.3718    0.0000 O   0  0  0  0  0  0  0  0  0  0  0  0
   10.6603   -7.1398    0.0000 O   0  0  0  0  0  0  0  0  0  0  0  0
   20.6855   -2.0510    0.0000 O   0  0  0  0  0  0  0  0  0  0  0  0
   22.0073   -4.3429    0.0000 O   0  0  0  0  0  0  0  0  0  0  0  0
    5.4641   -9.1398    0.0000 O   0  0  0  0  0  0  0  0  0  0  0  0
    6.3301  -10.6398    0.0000 O   0  0  0  0  0  0  0  0  0  0  0  0
    9.7942   -7.6398    0.0000 O   0  0  0  0  0  0  0  0  0  0  0  0
    2.8660  -10.6398    0.0000 O   0  0  0  0  0  0  0  0  0  0  0  0
    2.8660   -8.6398    0.0000 O   0  0  0  0  0  0  0  0  0  0  0  0
    4.5981  -11.6398    0.0000 O   0  0  0  0  0  0  0  0  0  0  0  0
   21.6282   -6.9614    0.0000 O   0  0  0  0  0  0  0  0  0  0  0  0
   22.1958   -5.3250    0.0000 O   0  0  0  0  0  0  0  0  0  0  0  0
    8.0622   -7.6398    0.0000 O   0  0  0  0  0  0  0  0  0  0  0  0
    6.3301   -8.6398    0.0000 O   0  0  0  0  0  0  0  0  0  0  0  0
   18.6475    2.3052    0.0000 O   0  0  0  0  0  0  0  0  0  0  0  0
   19.0556    8.3742    0.0000 O   0  0  0  0  0  0  0  0  0  0  0  0
   20.0031   11.8531    0.0000 O   0  0  0  0  0  0  0  0  0  0  0  0
   18.9545  -11.5058    0.0000 N   0  0  0  0  0  0  0  0  0  0  0  0
   14.9904   -7.6398    0.0000 N   0  0  0  0  0  0  0  0  0  0  0  0
   20.4949   -5.6516    0.0000 N   0  0  0  0  0  0  0  0  0  0  0  0
   17.1345    3.1484    0.0000 N   0  0  0  0  0  0  0  0  0  0  0  0
   17.6214    4.0219    0.0000 N   0  0  0  0  0  0  0  0  0  0  0  0
   18.4901   12.6963    0.0000 N   0  0  0  0  0  0  0  0  0  0  0  0
   18.4545  -10.6398    0.0000 C   0  0  0  0  0  0  0  0  0  0  0  0
   19.3205  -10.1398    0.0000 C   0  0  0  0  0  0  0  0  0  0  0  0
   19.3205   -9.1398    0.0000 C   0  0  0  0  0  0  0  0  0  0  0  0
   18.4545   -8.6398    0.0000 C   0  0  0  0  0  0  0  0  0  0  0  0
   17.5885  -10.1398    0.0000 C   0  0  0  0  0  0  0  0  0  0  0  0
   17.5885   -7.1398    0.0000 C   0  0  0  0  0  0  0  0  0  0  0  0
   16.7224   -7.6398    0.0000 C   0  0  0  0  0  0  0  0  0  0  0  0
   15.8564   -7.1398    0.0000 C   0  0  0  0  0  0  0  0  0  0  0  0
   17.9545  -11.5058    0.0000 C   0  0  0  0  0  0  0  0  0  0  0  0
   17.5885   -6.1398    0.0000 C   0  0  0  0  0  0  0  0  0  0  0  0
   15.8564   -6.1398    0.0000 C   0  0  0  0  0  0  0  0  0  0  0  0
   19.9545  -11.5058    0.0000 C   0  0  0  0  0  0  0  0  0  0  0  0
   18.4545  -12.3718    0.0000 C   0  0  0  0  0  0  0  0  0  0  0  0
   14.9904   -5.6398    0.0000 C   0  0  0  0  0  0  0  0  0  0  0  0
   20.4545  -12.3718    0.0000 C   0  0  0  0  0  0  0  0  0  0  0  0
   21.0526  -10.1398    0.0000 C   0  0  0  0  0  0  0  0  0  0  0  0
   18.4545   -4.6398    0.0000 C   0  0  0  0  0  0  0  0  0  0  0  0
   13.2583   -7.6398    0.0000 C   0  0  0  0  0  0  0  0  0  0  0  0
   18.9545  -13.2378    0.0000 C   0  0  0  0  0  0  0  0  0  0  0  0
   12.3923   -7.1398    0.0000 C   0  0  0  0  0  0  0  0  0  0  0  0
   11.5263   -7.6398    0.0000 C   0  0  0  0  0  0  0  0  0  0  0  0
   11.5263   -8.6398    0.0000 C   0  0  0  0  0  0  0  0  0  0  0  0
   12.3923   -9.1398    0.0000 C   0  0  0  0  0  0  0  0  0  0  0  0
   19.3616   -4.3417    0.0000 C   0  0  0  0  0  0  0  0  0  0  0  0
   19.1730   -3.3597    0.0000 C   0  0  0  0  0  0  0  0  0  0  0  0
   19.9292   -2.7054    0.0000 C   0  0  0  0  0  0  0  0  0  0  0  0
   20.3063   -4.6695    0.0000 C   0  0  0  0  0  0  0  0  0  0  0  0
   12.3923  -10.1398    0.0000 C   0  0  0  0  0  0  0  0  0  0  0  0
   17.5474   -4.3417    0.0000 C   0  0  0  0  0  0  0  0  0  0  0  0
   20.8740   -3.0331    0.0000 C   0  0  0  0  0  0  0  0  0  0  0  0
   21.0625   -4.0152    0.0000 C   0  0  0  0  0  0  0  0  0  0  0  0
   18.2282   -3.0319    0.0000 C   0  0  0  0  0  0  0  0  0  0  0  0
    9.7942   -8.6398    0.0000 C   0  0  0  0  0  0  0  0  0  0  0  0
   19.4016   -1.9096    0.0000 C   0  0  0  0  0  0  0  0  0  0  0  0
   16.9939   -3.5638    0.0000 C   0  0  0  0  0  0  0  0  0  0  0  0
   18.2131   -2.0320    0.0000 C   0  0  0  0  0  0  0  0  0  0  0  0
    3.7320  -10.1398    0.0000 C   0  0  0  0  0  0  0  0  0  0  0  0
    3.7320   -9.1398    0.0000 C   0  0  0  0  0  0  0  0  0  0  0  0
    4.5981  -10.6398    0.0000 C   0  0  0  0  0  0  0  0  0  0  0  0
    8.9282   -9.1398    0.0000 C   0  0  0  0  0  0  0  0  0  0  0  0
    4.5981   -8.6398    0.0000 C   0  0  0  0  0  0  0  0  0  0  0  0
    5.4641  -10.1398    0.0000 C   0  0  0  0  0  0  0  0  0  0  0  0
   21.4396   -5.9793    0.0000 C   0  0  0  0  0  0  0  0  0  0  0  0
   17.0096   -2.6092    0.0000 C   0  0  0  0  0  0  0  0  0  0  0  0
   18.5049   -1.5819    0.0000 C   0  0  0  0  0  0  0  0  0  0  0  0
    8.9282  -10.1398    0.0000 C   0  0  0  0  0  0  0  0  0  0  0  0
    8.0622   -8.6398    0.0000 C   0  0  0  0  0  0  0  0  0  0  0  0
   17.5885   -1.8499    0.0000 C   0  0  0  0  0  0  0  0  0  0  0  0
    4.5981   -7.6398    0.0000 C   0  0  0  0  0  0  0  0  0  0  0  0
    7.1962  -10.1398    0.0000 C   0  0  0  0  0  0  0  0  0  0  0  0
    8.0622  -10.6398    0.0000 C   0  0  0  0  0  0  0  0  0  0  0  0
    7.1962   -9.1398    0.0000 C   0  0  0  0  0  0  0  0  0  0  0  0
    9.7942  -10.6398    0.0000 C   0  0  0  0  0  0  0  0  0  0  0  0
    2.0000  -10.1398    0.0000 C   0  0  0  0  0  0  0  0  0  0  0  0
   17.6738    0.5582    0.0000 C   0  0  0  0  0  0  0  0  0  0  0  0
   22.5729   -7.2891    0.0000 C   0  0  0  0  0  0  0  0  0  0  0  0
   17.1608    1.4165    0.0000 C   0  0  0  0  0  0  0  0  0  0  0  0
    7.1962   -7.1398    0.0000 C   0  0  0  0  0  0  0  0  0  0  0  0
   18.5322    1.0712    0.0000 C   0  0  0  0  0  0  0  0  0  0  0  0
   16.8155    0.0451    0.0000 C   0  0  0  0  0  0  0  0  0  0  0  0
   17.6476    2.2900    0.0000 C   0  0  0  0  0  0  0  0  0  0  0  0
   17.1083    4.8802    0.0000 C   0  0  0  0  0  0  0  0  0  0  0  0
   17.5951    5.7537    0.0000 C   0  0  0  0  0  0  0  0  0  0  0  0
   16.1084    4.8651    0.0000 C   0  0  0  0  0  0  0  0  0  0  0  0
   17.0821    6.6121    0.0000 C   0  0  0  0  0  0  0  0  0  0  0  0
   18.5950    5.7689    0.0000 C   0  0  0  0  0  0  0  0  0  0  0  0
   17.5689    7.4856    0.0000 C   0  0  0  0  0  0  0  0  0  0  0  0
   19.0819    6.6424    0.0000 C   0  0  0  0  0  0  0  0  0  0  0  0
   18.5688    7.5007    0.0000 C   0  0  0  0  0  0  0  0  0  0  0  0
   18.5426    9.2326    0.0000 C   0  0  0  0  0  0  0  0  0  0  0  0
   19.0294   10.1061    0.0000 C   0  0  0  0  0  0  0  0  0  0  0  0
   18.5164   10.9644    0.0000 C   0  0  0  0  0  0  0  0  0  0  0  0
   19.0032   11.8379    0.0000 C   0  0  0  0  0  0  0  0  0  0  0  0
  1 86  1  0
 57  2  1  1
  2 68  1  0
  3  4  1  0
  3 71  1  0
  4 90  1  0
  5 39  1  0
  5 40  1  0
 39  6  1  1
 41  6  1  6
 37  7  1  6
  7 51  1  0
  8 45  1  0
  8 46  1  0
 45  9  1  1
 52  9  1  1
 42 10  1  6
 11 31  1  0
 53 11  1  6
 12 53  1  0
 12 58  1  0
 13 48  2  0
 56 14  1  1
 61 15  1  1
 16 66  2  0
 17 76  1  0
 17 77  1  0
 18 77  1  0
 18 85  1  0
 19 68  2  0
 72 20  1  6
 20 89  1  0
 73 21  1  1
 74 22  1  6
 23 78  1  0
 23 91  1  0
 24 78  2  0
 25 82  1  0
 25 93  1  0
 26 87  1  0
 27 96  2  0
 28104  1  0
 28105  1  0
 29108  2  0
 36 30  1  0
 30 47  1  0
 30 48  1  0
 43 31  1  6
 32 62  1  0
 32 78  1  0
 33 34  1  0
 33 96  1  0
 34 97  2  3
 35108  1  0
 36 37  1  0
 36 40  1  0
 36 44  1  1
 37 38  1  0
 38 39  1  0
 41 42  1  0
 41 45  1  0
 42 43  1  0
 43 46  1  0
 46 49  1  1
 47 50  1  0
 48 54  1  0
 52 59  1  0
 52 64  1  0
 53 55  1  0
 55 56  1  0
 56 57  1  0
 57 58  1  0
 58 63  1  6
 59 60  1  0
 59 62  2  0
 60 61  1  0
 60 67  2  3
 61 65  1  0
 61 69  1  0
 62 66  1  0
 64 70  3  0
 65 66  1  0
 67 71  1  0
 68 75  1  0
 69 80  3  0
 70 79  1  0
 72 73  1  0
 72 74  1  0
 73 76  1  0
 74 77  1  0
 75 81  2  0
 75 82  1  0
 76 84  1  6
 79 83  2  3
 80 83  1  0
 81 86  1  0
 81 88  1  0
 82 87  2  0
 85 86  2  0
 85 87  1  0
 90 92  1  0
 90 94  1  0
 90 95  1  0
 92 96  1  0
 97 98  1  0
 97 99  1  0
 98100  2  0
 98101  1  0
100102  1  0
101103  2  0
102104  2  0
103104  1  0
105106  1  0
106107  1  0
107108  1  0
M  END
