1276516-73-4.mol
     RDKit          2D

111110  0  0  1  0  0  0  0  0999 V2000
  -10.0359    0.0000    0.0000 S   0  0  0  0  0  0  0  0  0  0  0  0
   -9.3214    0.4125    0.0000 O   0  0  0  0  0  0  0  0  0  0  0  0
  -10.7504   -0.4125    0.0000 O   0  0  0  0  0  0  0  0  0  0  0  0
  -10.4484    0.7145    0.0000 O   0  0  0  0  0  0  0  0  0  0  0  0
   -9.6233   -0.7145    0.0000 O   0  0  0  0  0  0  0  0  0  0  0  0
   -6.0709    0.0000    0.0000 S   0  0  0  0  0  0  0  0  0  0  0  0
   -5.3564    0.4125    0.0000 O   0  0  0  0  0  0  0  0  0  0  0  0
   -6.7854   -0.4125    0.0000 O   0  0  0  0  0  0  0  0  0  0  0  0
   -6.4834    0.7145    0.0000 O   0  0  0  0  0  0  0  0  0  0  0  0
   -5.6584   -0.7145    0.0000 O   0  0  0  0  0  0  0  0  0  0  0  0
   -2.1059    0.0000    0.0000 S   0  0  0  0  0  0  0  0  0  0  0  0
   -1.3915    0.4125    0.0000 O   0  0  0  0  0  0  0  0  0  0  0  0
   -2.8204   -0.4125    0.0000 O   0  0  0  0  0  0  0  0  0  0  0  0
   -2.5185    0.7145    0.0000 O   0  0  0  0  0  0  0  0  0  0  0  0
   -1.6934   -0.7145    0.0000 O   0  0  0  0  0  0  0  0  0  0  0  0
    6.2067   -6.2866    0.0000 O   0  0  0  0  0  0  0  0  0  0  0  0
    1.2053   -7.5242    0.0000 O   0  0  0  0  0  0  0  0  0  0  0  0
    8.8805   -5.6811    0.0000 O   0  0  0  0  0  0  0  0  0  0  0  0
    3.3487   -3.8116    0.0000 O   0  0  0  0  0  0  0  0  0  0  0  0
    4.0632   -6.6992    0.0000 O   0  0  0  0  0  0  0  0  0  0  0  0
    4.0632   -1.7490    0.0000 O   0  0  0  0  0  0  0  0  0  0  0  0
    5.4922   -1.7490    0.0000 O   0  0  0  0  0  0  0  0  0  0  0  0
    8.1660   -2.3546    0.0000 O   0  0  0  0  0  0  0  0  0  0  0  0
    7.6357   -1.3365    0.0000 O   0  0  0  0  0  0  0  0  0  0  0  0
   10.4415   -2.1178    0.0000 O   0  0  0  0  0  0  0  0  0  0  0  0
    8.0159   -5.9676    0.0000 N   0  0  0  0  0  0  0  0  0  0  0  0
    7.6357   -5.4616    0.0000 N   0  0  0  0  0  0  0  0  0  0  0  0
    5.4922   -5.0491    0.0000 N   0  0  0  0  0  0  0  0  0  0  0  0
    9.3587   -5.4789    0.0000 N   0  0  0  0  0  0  0  0  0  0  0  0
    3.3487   -5.4616    0.0000 N   0  0  0  0  0  0  0  0  0  0  0  0
    9.1105   -6.8862    0.0000 N   0  0  0  0  0  0  0  0  0  0  0  0
    4.7778   -3.8116    0.0000 N   0  0  0  0  0  0  0  0  0  0  0  0
    3.3487   -7.9367    0.0000 N   0  0  0  0  0  0  0  0  0  0  0  0
    7.6357   -3.8116    0.0000 N   0  0  0  0  0  0  0  0  0  0  0  0
    6.2067   -2.9866    0.0000 N   0  0  0  0  0  0  0  0  0  0  0  0
    1.2053   -9.9992    0.0000 N   0  0  0  0  0  0  0  0  0  0  0  0
    9.3468   -3.0363    0.0000 N   0  0  0  0  0  0  0  0  0  0  0  0
   10.6896   -3.5251    0.0000 N   0  0  0  0  0  0  0  0  0  0  0  0
    7.7337   -5.1923    0.0000 C   0  0  0  0  0  0  0  0  0  0  0  0
    6.9212   -5.0491    0.0000 C   0  0  0  0  0  0  0  0  0  0  0  0
    8.2640   -4.5604    0.0000 C   0  0  0  0  0  0  0  0  0  0  0  0
    9.0765   -4.7036    0.0000 C   0  0  0  0  0  0  0  0  0  0  0  0
    6.2067   -5.4616    0.0000 C   0  0  0  0  0  0  0  0  0  0  0  0
    8.8284   -6.1109    0.0000 C   0  0  0  0  0  0  0  0  0  0  0  0
    4.7778   -5.4616    0.0000 C   0  0  0  0  0  0  0  0  0  0  0  0
    4.0632   -5.0491    0.0000 C   0  0  0  0  0  0  0  0  0  0  0  0
    8.3502   -5.0491    0.0000 C   0  0  0  0  0  0  0  0  0  0  0  0
    2.6343   -7.5242    0.0000 C   0  0  0  0  0  0  0  0  0  0  0  0
    2.6343   -6.6992    0.0000 C   0  0  0  0  0  0  0  0  0  0  0  0
    1.9198   -7.9367    0.0000 C   0  0  0  0  0  0  0  0  0  0  0  0
    4.0632   -4.2241    0.0000 C   0  0  0  0  0  0  0  0  0  0  0  0
    3.3487   -6.2866    0.0000 C   0  0  0  0  0  0  0  0  0  0  0  0
    1.9198   -8.7617    0.0000 C   0  0  0  0  0  0  0  0  0  0  0  0
    8.3502   -4.2241    0.0000 C   0  0  0  0  0  0  0  0  0  0  0  0
    4.7778   -2.9866    0.0000 C   0  0  0  0  0  0  0  0  0  0  0  0
    1.2053   -9.1742    0.0000 C   0  0  0  0  0  0  0  0  0  0  0  0
    6.9212   -2.5741    0.0000 C   0  0  0  0  0  0  0  0  0  0  0  0
    5.4922   -2.5741    0.0000 C   0  0  0  0  0  0  0  0  0  0  0  0
    4.0632   -2.5741    0.0000 C   0  0  0  0  0  0  0  0  0  0  0  0
    7.6357   -2.9866    0.0000 C   0  0  0  0  0  0  0  0  0  0  0  0
    9.0646   -3.8116    0.0000 C   0  0  0  0  0  0  0  0  0  0  0  0
    6.9212   -1.7490    0.0000 C   0  0  0  0  0  0  0  0  0  0  0  0
   10.1594   -2.8931    0.0000 C   0  0  0  0  0  0  0  0  0  0  0  0
    6.2067    4.7933    0.0000 O   0  0  0  0  0  0  0  0  0  0  0  0
    1.2053    3.5558    0.0000 O   0  0  0  0  0  0  0  0  0  0  0  0
    8.8805    5.3989    0.0000 O   0  0  0  0  0  0  0  0  0  0  0  0
    3.3487    7.2684    0.0000 O   0  0  0  0  0  0  0  0  0  0  0  0
    4.0632    4.3808    0.0000 O   0  0  0  0  0  0  0  0  0  0  0  0
    4.0632    9.3310    0.0000 O   0  0  0  0  0  0  0  0  0  0  0  0
    5.4922    9.3310    0.0000 O   0  0  0  0  0  0  0  0  0  0  0  0
    8.1660    8.7254    0.0000 O   0  0  0  0  0  0  0  0  0  0  0  0
    7.6357    9.7435    0.0000 O   0  0  0  0  0  0  0  0  0  0  0  0
   10.4415    8.9622    0.0000 O   0  0  0  0  0  0  0  0  0  0  0  0
    8.0159    5.1124    0.0000 N   0  0  0  0  0  0  0  0  0  0  0  0
    7.6357    5.6184    0.0000 N   0  0  0  0  0  0  0  0  0  0  0  0
    5.4922    6.0309    0.0000 N   0  0  0  0  0  0  0  0  0  0  0  0
    9.3587    5.6011    0.0000 N   0  0  0  0  0  0  0  0  0  0  0  0
    3.3487    5.6184    0.0000 N   0  0  0  0  0  0  0  0  0  0  0  0
    9.1105    4.1938    0.0000 N   0  0  0  0  0  0  0  0  0  0  0  0
    4.7778    7.2684    0.0000 N   0  0  0  0  0  0  0  0  0  0  0  0
    3.3487    3.1433    0.0000 N   0  0  0  0  0  0  0  0  0  0  0  0
    7.6357    7.2684    0.0000 N   0  0  0  0  0  0  0  0  0  0  0  0
    6.2067    8.0934    0.0000 N   0  0  0  0  0  0  0  0  0  0  0  0
    1.2053    1.0808    0.0000 N   0  0  0  0  0  0  0  0  0  0  0  0
    9.3468    8.0437    0.0000 N   0  0  0  0  0  0  0  0  0  0  0  0
   10.6896    7.5549    0.0000 N   0  0  0  0  0  0  0  0  0  0  0  0
    7.7337    5.8877    0.0000 C   0  0  0  0  0  0  0  0  0  0  0  0
    6.9212    6.0309    0.0000 C   0  0  0  0  0  0  0  0  0  0  0  0
    8.2640    6.5196    0.0000 C   0  0  0  0  0  0  0  0  0  0  0  0
    9.0765    6.3763    0.0000 C   0  0  0  0  0  0  0  0  0  0  0  0
    6.2067    5.6184    0.0000 C   0  0  0  0  0  0  0  0  0  0  0  0
    8.8284    4.9691    0.0000 C   0  0  0  0  0  0  0  0  0  0  0  0
    4.7778    5.6184    0.0000 C   0  0  0  0  0  0  0  0  0  0  0  0
    4.0632    6.0309    0.0000 C   0  0  0  0  0  0  0  0  0  0  0  0
    8.3502    6.0309    0.0000 C   0  0  0  0  0  0  0  0  0  0  0  0
    2.6343    3.5558    0.0000 C   0  0  0  0  0  0  0  0  0  0  0  0
    2.6343    4.3808    0.0000 C   0  0  0  0  0  0  0  0  0  0  0  0
    1.9198    3.1433    0.0000 C   0  0  0  0  0  0  0  0  0  0  0  0
    4.0632    6.8559    0.0000 C   0  0  0  0  0  0  0  0  0  0  0  0
    3.3487    4.7933    0.0000 C   0  0  0  0  0  0  0  0  0  0  0  0
    1.9198    2.3183    0.0000 C   0  0  0  0  0  0  0  0  0  0  0  0
    8.3502    6.8559    0.0000 C   0  0  0  0  0  0  0  0  0  0  0  0
    4.7778    8.0934    0.0000 C   0  0  0  0  0  0  0  0  0  0  0  0
    1.2053    1.9058    0.0000 C   0  0  0  0  0  0  0  0  0  0  0  0
    6.9212    8.5059    0.0000 C   0  0  0  0  0  0  0  0  0  0  0  0
    5.4922    8.5059    0.0000 C   0  0  0  0  0  0  0  0  0  0  0  0
    4.0632    8.5059    0.0000 C   0  0  0  0  0  0  0  0  0  0  0  0
    7.6357    8.0934    0.0000 C   0  0  0  0  0  0  0  0  0  0  0  0
    9.0646    7.2684    0.0000 C   0  0  0  0  0  0  0  0  0  0  0  0
    6.9212    9.3310    0.0000 C   0  0  0  0  0  0  0  0  0  0  0  0
   10.1594    8.1869    0.0000 C   0  0  0  0  0  0  0  0  0  0  0  0
  1  2  1  0
  1  3  1  0
  1  4  2  0
  1  5  2  0
  6  7  1  0
  6  8  1  0
  6  9  2  0
  6 10  2  0
 11 12  1  0
 11 13  1  0
 11 14  2  0
 11 15  2  0
 16 43  2  0
 50 17  1  1
 18 47  2  0
 19 51  2  0
 20 52  2  0
 21 59  1  0
 22 58  2  0
 23 60  2  0
 24 62  1  0
 25 63  2  0
 26 39  1  0
 26 44  1  0
 40 27  1  1
 27 47  1  0
 28 43  1  0
 28 45  1  0
 29 42  1  0
 29 44  2  0
 46 30  1  6
 30 52  1  0
 31 44  1  0
 32 51  1  0
 32 55  1  0
 48 33  1  1
 34 54  1  0
 34 60  1  0
 35 57  1  0
 35 58  1  0
 36 56  1  0
 37 61  1  0
 37 63  1  0
 38 63  1  0
 39 40  1  0
 39 41  1  1
 40 43  1  0
 41 42  1  0
 45 46  1  0
 46 51  1  0
 47 54  1  0
 48 49  1  0
 48 50  1  0
 49 52  1  0
 50 53  1  0
 53 56  1  0
 54 61  2  0
 55 58  1  0
 55 59  1  1
 57 60  1  0
 57 62  1  1
 64 91  2  0
 98 65  1  1
 66 95  2  0
 67 99  2  0
 68100  2  0
 69107  1  0
 70106  2  0
 71108  2  0
 72110  1  0
 73111  2  0
 74 87  1  0
 74 92  1  0
 88 75  1  1
 75 95  1  0
 76 91  1  0
 76 93  1  0
 77 90  1  0
 77 92  2  0
 94 78  1  6
 78100  1  0
 79 92  1  0
 80 99  1  0
 80103  1  0
 96 81  1  1
 82102  1  0
 82108  1  0
 83105  1  0
 83106  1  0
 84104  1  0
 85109  1  0
 85111  1  0
 86111  1  0
 87 88  1  0
 87 89  1  1
 88 91  1  0
 89 90  1  0
 93 94  1  0
 94 99  1  0
 95102  1  0
 96 97  1  0
 96 98  1  0
 97100  1  0
 98101  1  0
101104  1  0
102109  2  0
103106  1  0
103107  1  1
105108  1  0
105110  1  1
V    1 0
V    2 23
V    3 24
V    4 29
V    5 30
V    6 1
V    7 25
V    8 26
V    9 33
V   10 34
V   11 2
V   12 27
V   13 28
V   14 31
V   15 32
V   16 3
V   17 5
V   18 8
V   19 10
V   20 12
V   21 13
V   22 15
V   23 18
V   24 19
V   25 21
V   26 36
V   27 38
V   28 40
V   29 41
V   30 44
V   31 45
V   32 48
V   33 49
V   34 52
V   35 54
V   36 56
V   37 58
V   38 60
V   39 61
V   40 63
V   41 65
V   42 67
V   43 70
V   44 72
V   45 73
V   46 75
V   47 78
V   48 79
V   49 82
V   50 83
V   51 86
V   52 88
V   53 89
V   54 91
V   55 94
V   56 95
V   57 98
V   58 99
V   59 102
V   60 104
V   61 106
V   62 108
V   63 109
V   64 4
V   65 6
V   66 7
V   67 9
V   68 11
V   69 14
V   70 16
V   71 17
V   72 20
V   73 22
V   74 35
V   75 37
V   76 39
V   77 42
V   78 43
V   79 46
V   80 47
V   81 50
V   82 51
V   83 53
V   84 55
V   85 57
V   86 59
V   87 62
V   88 64
V   89 66
V   90 68
V   91 69
V   92 71
V   93 74
V   94 76
V   95 77
V   96 80
V   97 81
V   98 84
V   99 85
V  100 87
V  101 90
V  102 92
V  103 93
V  104 96
V  105 97
V  106 100
V  107 101
V  108 103
V  109 105
V  110 107
V  111 110
M  END
