439905
     RDKit          2D

 14 14  0  0  1  0  0  0  0  0999 V2000
    3.0800    1.4213    0.0000 P   0  0  0  0  0  0  0  0  0  0  0  0
    5.9990    0.4129    0.0000 O   0  0  0  0  0  0  0  0  0  0  0  0
    4.9112   -1.9349    0.0000 O   0  0  0  0  0  0  0  0  0  0  0  0
    7.0868   -1.9349    0.0000 O   0  0  0  0  0  0  0  0  0  0  0  0
    4.0310    1.1123    0.0000 O   0  0  0  0  0  0  0  0  0  0  0  0
    2.1289    1.7304    0.0000 O   0  0  0  0  0  0  0  0  0  0  0  0
    3.3890    2.3724    0.0000 O   0  0  0  0  0  0  0  0  0  0  0  0
    2.7709    0.4703    0.0000 O   0  0  0  0  0  0  0  0  0  0  0  0
    7.7591    0.1342    0.0000 N   0  0  0  0  0  0  0  0  0  0  0  0
    5.4990   -1.1259    0.0000 C   0  0  0  0  0  0  0  0  0  0  0  0
    5.1900   -0.1748    0.0000 C   0  0  0  0  0  0  0  0  0  0  0  0
    6.4990   -1.1259    0.0000 C   0  0  0  0  0  0  0  0  0  0  0  0
    6.8080   -0.1748    0.0000 C   0  0  0  0  0  0  0  0  0  0  0  0
    4.2389    0.1342    0.0000 C   0  0  0  0  0  0  0  0  0  0  0  0
  1  5  1  0
  1  6  1  0
  1  7  1  0
  1  8  2  0
  2 11  1  0
  2 13  1  0
 10  3  1  6
 12  4  1  6
  5 14  1  0
 13  9  1  1
 10 11  1  0
 10 12  1  0
 11 14  1  1
 12 13  1  0
M  END
