137321858
     RDKit          2D

 44 47  0  0  1  0  0  0  0  0999 V2000
    5.8985    0.0000    0.0000 Na  0  0  0  0  0 15  0  0  0  0  0  0
    6.1041    2.9599    0.0000 O   0  0  0  0  0  0  0  0  0  0  0  0
    0.4934    8.5300    0.0000 O   0  0  0  0  0  0  0  0  0  0  0  0
    1.5422    9.9085    0.0000 O   0  0  0  0  0  0  0  0  0  0  0  0
    6.0511   14.0060    0.0000 O   0  0  0  0  0  0  0  0  0  0  0  0
    4.6561   12.9794    0.0000 O   0  0  0  0  0  0  0  0  0  0  0  0
    5.4650    7.5915    0.0000 N   0  0  0  0  0  0  0  0  0  0  0  0
    8.4702    7.5915    0.0000 N   0  0  0  0  0  0  0  0  0  0  0  0
    6.9349    8.9610    0.0000 N   0  0  0  0  0  0  0  0  0  0  0  0
    6.9684    6.2220    0.0000 N   0  0  0  0  0  0  0  0  0  0  0  0
    3.9297    8.0921    0.0000 C   0  0  0  0  0  0  0  0  0  0  0  0
    4.8974    8.3600    0.0000 C   0  0  0  0  0  0  0  0  0  0  0  0
    3.9297    7.0909    0.0000 C   0  0  0  0  0  0  0  0  0  0  0  0
    4.8974    6.8230    0.0000 C   0  0  0  0  0  0  0  0  0  0  0  0
   10.0071    7.1244    0.0000 C   0  0  0  0  0  0  0  0  0  0  0  0
    6.4344   10.5632    0.0000 C   0  0  0  0  0  0  0  0  0  0  0  0
    9.0712    6.8565    0.0000 C   0  0  0  0  0  0  0  0  0  0  0  0
    9.0377    8.3935    0.0000 C   0  0  0  0  0  0  0  0  0  0  0  0
    6.4678    4.6533    0.0000 C   0  0  0  0  0  0  0  0  0  0  0  0
   10.0071    8.1256    0.0000 C   0  0  0  0  0  0  0  0  0  0  0  0
    6.1330    9.5955    0.0000 C   0  0  0  0  0  0  0  0  0  0  0  0
    3.1339    8.6976    0.0000 C   0  0  0  0  0  0  0  0  0  0  0  0
    6.1665    5.5875    0.0000 C   0  0  0  0  0  0  0  0  0  0  0  0
    7.4355   10.5632    0.0000 C   0  0  0  0  0  0  0  0  0  0  0  0
    7.4690    4.6533    0.0000 C   0  0  0  0  0  0  0  0  0  0  0  0
    7.7704    9.6290    0.0000 C   0  0  0  0  0  0  0  0  0  0  0  0
    5.1653    9.3277    0.0000 C   0  0  0  0  0  0  0  0  0  0  0  0
    7.7704    5.6210    0.0000 C   0  0  0  0  0  0  0  0  0  0  0  0
    5.1988    5.8888    0.0000 C   0  0  0  0  0  0  0  0  0  0  0  0
    8.7715    5.8888    0.0000 C   0  0  0  0  0  0  0  0  0  0  0  0
    8.7380    9.3277    0.0000 C   0  0  0  0  0  0  0  0  0  0  0  0
    5.8416   11.3686    0.0000 C   0  0  0  0  0  0  0  0  0  0  0  0
    5.7971    3.9116    0.0000 C   0  0  0  0  0  0  0  0  0  0  0  0
   10.8056    6.5224    0.0000 C   0  0  0  0  0  0  0  0  0  0  0  0
    3.0637    6.5909    0.0000 C   0  0  0  0  0  0  0  0  0  0  0  0
    2.2116    8.3111    0.0000 C   0  0  0  0  0  0  0  0  0  0  0  0
   10.8028    8.7312    0.0000 C   0  0  0  0  0  0  0  0  0  0  0  0
    8.0111   11.3810    0.0000 C   0  0  0  0  0  0  0  0  0  0  0  0
    8.0618    3.8479    0.0000 C   0  0  0  0  0  0  0  0  0  0  0  0
    6.2427   12.2846    0.0000 C   0  0  0  0  0  0  0  0  0  0  0  0
    4.8194    4.1216    0.0000 C   0  0  0  0  0  0  0  0  0  0  0  0
   11.7262    6.9129    0.0000 C   0  0  0  0  0  0  0  0  0  0  0  0
    1.4157    8.9166    0.0000 C   0  0  0  0  0  0  0  0  0  0  0  0
    5.6499   13.0900    0.0000 C   0  0  0  0  0  0  0  0  0  0  0  0
  2 33  1  0
  3 43  1  0
  4 43  2  0
  5 44  1  0
  6 44  2  0
  7 12  1  0
  7 14  1  0
  8 17  1  0
  8 18  1  0
  9 21  1  0
  9 26  2  0
 10 23  1  0
 10 28  2  0
 11 12  2  0
 11 13  1  0
 11 22  1  0
 12 27  1  0
 13 14  2  0
 13 35  1  0
 14 29  1  0
 15 17  1  0
 15 20  2  0
 15 34  1  0
 16 21  1  0
 16 24  2  0
 16 32  1  0
 17 30  2  0
 18 20  1  0
 18 31  2  0
 19 23  1  0
 19 25  2  0
 19 33  1  0
 20 37  1  0
 21 27  2  0
 22 36  1  0
 23 29  2  0
 24 26  1  0
 24 38  1  0
 25 28  1  0
 25 39  1  0
 26 31  1  0
 28 30  1  0
 32 40  1  0
 33 41  1  0
 34 42  1  0
 36 43  1  0
 40 44  1  0
M  CHG  1   1   1
M  END
