9004-61-9.mol
     RDKit          2D

 27 27  0  0  0  0  0  0  0  0999 V2000
   -0.3020    0.0000    0.0000 C   0  0  0  0  0  0  0  0  0  0  0  0
   -1.0165    0.4125    0.0000 C   0  0  0  0  0  0  0  0  0  0  0  0
   -0.3020   -0.8250    0.0000 O   0  0  0  0  0  0  0  0  0  0  0  0
   -1.7309    0.0000    0.0000 C   0  0  0  0  0  0  0  0  0  0  0  0
   -1.0165    1.2375    0.0000 N   0  0  0  0  0  0  0  0  0  0  0  0
   -1.0165   -1.2375    0.0000 C   0  0  0  0  0  0  0  0  0  0  0  0
   -1.7309   -0.8250    0.0000 C   0  0  0  0  0  0  0  0  0  0  0  0
   -1.7309    1.6500    0.0000 C   0  0  0  0  0  0  0  0  0  0  0  0
   -1.0165   -2.0625    0.0000 C   0  0  0  0  0  0  0  0  0  0  0  0
   -2.4454   -1.2375    0.0000 O   0  0  0  0  0  0  0  0  0  0  0  0
   -1.7309    2.4750    0.0000 C   0  0  0  0  0  0  0  0  0  0  0  0
   -2.4454    1.2375    0.0000 O   0  0  0  0  0  0  0  0  0  0  0  0
   -0.3020   -2.4750    0.0000 O   0  0  0  0  0  0  0  0  0  0  0  0
    0.4125    0.4125    0.0000 O   0  0  0  0  0  0  0  0  0  0  0  0
    1.1270    0.0000    0.0000 C   0  0  0  0  0  0  0  0  0  0  0  0
    1.8415    0.4125    0.0000 C   0  0  0  0  0  0  0  0  0  0  0  0
    1.1270   -0.8250    0.0000 C   0  0  0  0  0  0  0  0  0  0  0  0
    2.5559    0.0000    0.0000 O   0  0  0  0  0  0  0  0  0  0  0  0
    1.8415    1.2375    0.0000 C   0  0  0  0  0  0  0  0  0  0  0  0
    1.8415   -1.2375    0.0000 C   0  0  0  0  0  0  0  0  0  0  0  0
    0.4125   -1.2375    0.0000 O   0  0  0  0  0  0  0  0  0  0  0  0
    2.5559   -0.8250    0.0000 C   0  0  0  0  0  0  0  0  0  0  0  0
    2.5559    1.6500    0.0000 O   0  0  0  0  0  0  0  0  0  0  0  0
    1.1270    1.6500    0.0000 O   0  0  0  0  0  0  0  0  0  0  0  0
    1.8415   -2.0625    0.0000 O   0  0  0  0  0  0  0  0  0  0  0  0
    3.2704   -1.2375    0.0000 O   0  0  0  0  0  0  0  0  0  0  0  0
   -3.2704   -2.4750    0.0000 Na  0  0  0  0  0 15  0  0  0  0  0  0
  1  2  1  0
  1  3  1  0
  1 14  1  6
  2  4  1  0
  2  5  1  1
  3  6  1  0
  4  7  1  0
  5  8  1  0
  6  7  1  0
  6  9  1  6
  7 10  1  1
  8 11  1  0
  8 12  2  0
  9 13  1  0
 15 14  1  6
 15 16  1  0
 15 17  1  0
 16 18  1  0
 16 19  1  1
 17 20  1  0
 17 21  1  1
 18 22  1  0
 19 23  1  0
 19 24  2  0
 20 25  1  6
 20 22  1  0
 22 26  1  1
M  CHG  2  23  -1  27   1
M  END
