454
     RDKit          2D

  9  8  0  0  0  0  0  0  0  0999 V2000
    2.0000   -0.5600    0.0000 O   0  0  0  0  0  0  0  0  0  0  0  0
    6.3301   -0.0600    0.0000 C   0  0  0  0  0  0  0  0  0  0  0  0
    5.4641   -0.5600    0.0000 C   0  0  0  0  0  0  0  0  0  0  0  0
    7.1962   -0.5600    0.0000 C   0  0  0  0  0  0  0  0  0  0  0  0
    4.5981   -0.0600    0.0000 C   0  0  0  0  0  0  0  0  0  0  0  0
    8.0622   -0.0600    0.0000 C   0  0  0  0  0  0  0  0  0  0  0  0
    3.7320   -0.5600    0.0000 C   0  0  0  0  0  0  0  0  0  0  0  0
    8.9282   -0.5600    0.0000 C   0  0  0  0  0  0  0  0  0  0  0  0
    2.8660   -0.0600    0.0000 C   0  0  0  0  0  0  0  0  0  0  0  0
  1  9  2  0
  2  3  1  0
  2  4  1  0
  3  5  1  0
  4  6  1  0
  5  7  1  0
  6  8  1  0
  7  9  1  0
M  END
