124115349
     RDKit          2D

 17 18  0  0  0  0  0  0  0  0999 V2000
    8.2619   -0.9330    0.0000 S   0  0  0  0  0  0  0  0  0  0  0  0
    4.6783    1.6038    0.0000 S   0  0  0  0  0  0  0  0  0  0  0  0
    8.7619   -1.7990    0.0000 O   0  0  0  0  0  0  0  0  0  0  0  0
    6.2619   -0.9330    0.0000 O   0  0  0  0  0  0  0  0  0  0  0  0
    9.1279   -0.4330    0.0000 O   0  0  0  0  0  0  0  0  0  0  0  0
    7.3958   -1.4330    0.0000 O   0  0  0  0  0  0  0  0  0  0  0  0
    6.2619    0.7990    0.0000 N   0  0  0  0  0  0  0  0  0  0  0  0
    4.6783   -0.0057    0.0000 N   0  0  0  0  0  0  0  0  0  0  0  0
    7.7619   -0.0670    0.0000 C   0  0  0  0  0  0  0  0  0  0  0  0
    3.7320    1.2990    0.0000 C   0  0  0  0  0  0  0  0  0  0  0  0
    3.7320    0.2990    0.0000 C   0  0  0  0  0  0  0  0  0  0  0  0
    5.2619    0.7990    0.0000 C   0  0  0  0  0  0  0  0  0  0  0  0
    6.7619   -0.0670    0.0000 C   0  0  0  0  0  0  0  0  0  0  0  0
    2.8660    1.7990    0.0000 C   0  0  0  0  0  0  0  0  0  0  0  0
    2.8660   -0.2010    0.0000 C   0  0  0  0  0  0  0  0  0  0  0  0
    2.0000    1.2990    0.0000 C   0  0  0  0  0  0  0  0  0  0  0  0
    2.0000    0.2990    0.0000 C   0  0  0  0  0  0  0  0  0  0  0  0
  1  3  1  0
  1  5  2  0
  1  6  2  0
  1  9  1  0
  2 10  1  0
  2 12  1  0
  4 13  2  0
  7 12  1  0
  7 13  1  0
  8 11  1  0
  8 12  2  0
  9 13  1  0
 10 11  2  0
 10 14  1  0
 11 15  1  0
 14 16  2  0
 15 17  2  0
 16 17  1  0
M  END
