 
     RDKit          2D

142147  0  1  1  0  0  0  0  0999 V2000
   20.6500  -19.0400    0.0000 C   0  0  0  0  0  0  0  0  0  0  0  0
   21.7700  -19.6700    0.0000 C   0  0  0  0  0  0  0  0  0  0  0  0
   20.6500  -17.7100    0.0000 C   0  0  0  0  0  0  0  0  0  0  0  0
   19.0400  -19.9500    0.0000 O   0  0  0  0  0  0  0  0  0  0  0  0
   22.8900  -19.0400    0.0000 C   0  0  0  0  0  0  0  0  0  0  0  0
   21.7700  -21.0000    0.0000 O   0  0  0  0  0  0  0  0  0  0  0  0
   21.7700  -17.0800    0.0000 O   0  0  0  0  0  0  0  0  0  0  0  0
   19.4600  -17.0800    0.0000 C   0  0  0  0  0  0  0  0  0  0  0  0
   17.3600  -20.8600    0.0000 C   0  0  0  0  0  0  0  0  0  0  0  0
   22.8900  -17.7100    0.0000 C   0  0  0  0  0  0  0  0  0  0  0  0
   23.9400  -20.2300    0.0000 N   0  0  0  0  0  0  0  0  0  0  0  0
   18.3400  -17.7100    0.0000 O   0  0  0  0  0  0  0  0  0  0  0  0
   17.3600  -22.1900    0.0000 C   0  0  0  0  0  0  0  0  0  0  0  0
   16.2400  -20.2300    0.0000 O   0  0  0  0  0  0  0  0  0  0  0  0
   24.5000  -16.8000    0.0000 O   0  0  0  0  0  0  0  0  0  0  0  0
   25.9000  -20.2300    0.0000 S   0  0  0  0  0  0  0  0  0  0  0  0
   16.2400  -22.8900    0.0000 C   0  0  0  0  0  0  0  0  0  0  0  0
   18.9000  -23.8000    0.0000 O   0  0  0  0  0  0  0  0  0  0  0  0
   15.1200  -20.8600    0.0000 C   0  0  0  0  0  0  0  0  0  0  0  0
   26.1800  -15.8200    0.0000 C   0  0  0  0  0  0  0  0  0  0  0  0
   25.9000  -21.5600    0.0000 O   0  0  0  0  0  0  0  0  0  0  0  0
   25.9000  -18.9000    0.0000 O   0  0  0  0  0  0  0  0  0  0  0  0
   27.2300  -20.2300    0.0000 O   0  0  0  0  0  0  0  0  0  0  0  0
   15.1200  -22.1900    0.0000 C   0  0  0  0  0  0  0  0  0  0  0  0
   16.2400  -24.1500    0.0000 O   0  0  0  0  0  0  0  0  0  0  0  0
   14.0000  -20.2300    0.0000 C   0  0  0  0  0  0  0  0  0  0  0  0
   26.1800  -14.4900    0.0000 C   0  0  0  0  0  0  0  0  0  0  0  0
   27.3000  -16.5200    0.0000 C   0  0  0  0  0  0  0  0  0  0  0  0
   13.9300  -22.8900    0.0000 O   0  0  0  0  0  0  0  0  0  0  0  0
   12.8100  -20.8600    0.0000 O   0  0  0  0  0  0  0  0  0  0  0  0
   14.0000  -18.9000    0.0000 O   0  0  0  0  0  0  0  0  0  0  0  0
   27.3000  -13.8600    0.0000 O   0  0  0  0  0  0  0  0  0  0  0  0
   24.9900  -13.8600    0.0000 C   0  0  0  0  0  0  0  0  0  0  0  0
   28.4200  -15.8200    0.0000 C   0  0  0  0  0  0  0  0  0  0  0  0
   27.3000  -17.7800    0.0000 O   0  0  0  0  0  0  0  0  0  0  0  0
   11.1300  -22.8200    0.0000 *   0  0  0  0  0  0  0  0  0  0  0  0
   28.4200  -14.4900    0.0000 C   0  0  0  0  0  0  0  0  0  0  0  0
   23.8700  -14.4900    0.0000 O   0  0  0  0  0  0  0  0  0  0  0  0
   24.9900  -12.5300    0.0000 O   0  0  0  0  0  0  0  0  0  0  0  0
   30.8700  -17.2900    0.0000 O   0  0  0  0  0  0  0  0  0  0  0  0
   30.0300  -13.5800    0.0000 O   0  0  0  0  0  0  0  0  0  0  0  0
   31.7100  -12.6000    0.0000 C   0  0  0  0  0  0  0  0  0  0  0  0
   31.7100  -11.3400    0.0000 C   0  0  0  0  0  0  0  0  0  0  0  0
   32.8300  -13.3000    0.0000 C   0  0  0  0  0  0  0  0  0  0  0  0
   32.8300  -10.6400    0.0000 O   0  0  0  0  0  0  0  0  0  0  0  0
   30.5200  -10.6400    0.0000 C   0  0  0  0  0  0  0  0  0  0  0  0
   33.9500  -12.6000    0.0000 C   0  0  0  0  0  0  0  0  0  0  0  0
   32.8300  -14.6300    0.0000 O   0  0  0  0  0  0  0  0  0  0  0  0
   33.9500  -11.3400    0.0000 C   0  0  0  0  0  0  0  0  0  0  0  0
   29.2600  -10.6400    0.0000 O   0  0  0  0  0  0  0  0  0  0  0  0
   35.9800  -13.5800    0.0000 N   0  0  0  0  0  0  0  0  0  0  0  0
   36.4000   -9.9400    0.0000 *   0  0  0  0  0  0  0  0  0  0  0  0
   27.9300  -10.6400    0.0000 S   0  0  0  0  0  0  0  0  0  0  0  0
   35.9800  -14.9100    0.0000 C   0  0  0  0  0  0  0  0  0  0  0  0
   27.9300  -11.9700    0.0000 O   0  0  0  0  0  0  0  0  0  0  0  0
   27.9300   -9.3100    0.0000 O   0  0  0  0  0  0  0  0  0  0  0  0
   26.6000  -10.6400    0.0000 O   0  0  0  0  0  0  0  0  0  0  0  0
   37.1700  -15.5400    0.0000 C   0  0  0  0  0  0  0  0  0  0  0  0
   34.8600  -15.5400    0.0000 O   0  0  0  0  0  0  0  0  0  0  0  0
   18.9000  -25.2000    0.0000 S   0  0  0  0  0  0  0  0  0  0  0  0
   18.9000  -26.6000    0.0000 O   0  0  0  0  0  0  0  0  0  0  0  0
   20.3000  -25.2000    0.0000 O   0  0  0  0  0  0  0  0  0  0  0  0
   17.5000  -25.2000    0.0000 O   0  0  0  0  0  0  0  0  0  0  0  0
   21.7700  -22.4000    0.0000 S   0  0  0  0  0  0  0  0  0  0  0  0
   21.7700  -23.8000    0.0000 O   0  0  0  0  0  0  0  0  0  0  0  0
   23.1700  -22.4000    0.0000 O   0  0  0  0  0  0  0  0  0  0  0  0
   20.3700  -22.4000    0.0000 O   0  0  0  0  0  0  0  0  0  0  0  0
   30.8700  -18.6900    0.0000 S   0  0  0  0  0  0  0  0  0  0  0  0
   30.8700  -20.0900    0.0000 O   0  0  0  0  0  0  0  0  0  0  0  0
   32.2700  -18.6900    0.0000 O   0  0  0  0  0  0  0  0  0  0  0  0
   29.4700  -18.6900    0.0000 O   0  0  0  0  0  0  0  0  0  0  0  0
    4.0000    0.7470    0.0000 S   0  0  0  0  0  0  0  0  0  0  0  0
    3.0000   -2.2530    0.0000 S   0  0  0  0  0  0  0  0  0  0  0  0
   10.0622    1.2470    0.0000 S   0  0  0  0  0  0  0  0  0  0  0  0
    7.6605   -5.5509    0.0000 S   0  0  0  0  0  0  0  0  0  0  0  0
   12.6603    3.7470    0.0000 S   0  0  0  0  0  0  0  0  0  0  0  0
    6.5981   -0.7530    0.0000 O   0  0  0  0  0  0  0  0  0  0  0  0
    5.7320    0.7470    0.0000 O   0  0  0  0  0  0  0  0  0  0  0  0
    5.7320   -3.2530    0.0000 O   0  0  0  0  0  0  0  0  0  0  0  0
    7.4641    2.7470    0.0000 O   0  0  0  0  0  0  0  0  0  0  0  0
    9.1962    2.7470    0.0000 O   0  0  0  0  0  0  0  0  0  0  0  0
    4.0000   -2.2530    0.0000 O   0  0  0  0  0  0  0  0  0  0  0  0
   10.0622    5.2470    0.0000 O   0  0  0  0  0  0  0  0  0  0  0  0
    4.4051   -4.3662    0.0000 O   0  0  0  0  0  0  0  0  0  0  0  0
    9.1962    0.7470    0.0000 O   0  0  0  0  0  0  0  0  0  0  0  0
    7.4641   -0.2530    0.0000 O   0  0  0  0  0  0  0  0  0  0  0  0
    7.4641    3.7470    0.0000 O   0  0  0  0  0  0  0  0  0  0  0  0
    7.0177   -4.7850    0.0000 O   0  0  0  0  0  0  0  0  0  0  0  0
    7.4641   -3.2530    0.0000 O   0  0  0  0  0  0  0  0  0  0  0  0
    6.3337   -6.6644    0.0000 O   0  0  0  0  0  0  0  0  0  0  0  0
    9.1962    6.7470    0.0000 O   0  0  0  0  0  0  0  0  0  0  0  0
    4.3639   -7.0117    0.0000 O   0  0  0  0  0  0  0  0  0  0  0  0
   11.7942    4.2470    0.0000 O   0  0  0  0  0  0  0  0  0  0  0  0
    5.7320    3.7470    0.0000 O   0  0  0  0  0  0  0  0  0  0  0  0
    3.0000    0.7470    0.0000 O   0  0  0  0  0  0  0  0  0  0  0  0
    4.8660    2.2470    0.0000 O   0  0  0  0  0  0  0  0  0  0  0  0
    4.0000    1.7470    0.0000 O   0  0  0  0  0  0  0  0  0  0  0  0
    5.0000    0.7470    0.0000 O   0  0  0  0  0  0  0  0  0  0  0  0
    2.5000   -3.1189    0.0000 O   0  0  0  0  0  0  0  0  0  0  0  0
    3.0000   -1.2530    0.0000 O   0  0  0  0  0  0  0  0  0  0  0  0
    2.0000   -2.2530    0.0000 O   0  0  0  0  0  0  0  0  0  0  0  0
   10.9282    1.7470    0.0000 O   0  0  0  0  0  0  0  0  0  0  0  0
    2.7363   -6.4192    0.0000 O   0  0  0  0  0  0  0  0  0  0  0  0
   10.5622    0.3810    0.0000 O   0  0  0  0  0  0  0  0  0  0  0  0
    9.5622    2.1131    0.0000 O   0  0  0  0  0  0  0  0  0  0  0  0
    2.4356   -4.7136    0.0000 O   0  0  0  0  0  0  0  0  0  0  0  0
    6.8946   -6.1938    0.0000 O   0  0  0  0  0  0  0  0  0  0  0  0
    8.3301    7.2470    0.0000 O   0  0  0  0  0  0  0  0  0  0  0  0
    8.3033   -6.3169    0.0000 O   0  0  0  0  0  0  0  0  0  0  0  0
    8.4265   -4.9081    0.0000 O   0  0  0  0  0  0  0  0  0  0  0  0
   13.5263    3.2470    0.0000 O   0  0  0  0  0  0  0  0  0  0  0  0
   13.1603    4.6131    0.0000 O   0  0  0  0  0  0  0  0  0  0  0  0
   12.1603    2.8810    0.0000 O   0  0  0  0  0  0  0  0  0  0  0  0
    4.0000   -0.2530    0.0000 N   0  0  0  0  0  0  0  0  0  0  0  0
    7.4641    5.7470    0.0000 N   0  0  0  0  0  0  0  0  0  0  0  0
    4.8660   -0.7530    0.0000 C   0  0  0  0  0  0  0  0  0  0  0  0
    4.8660   -1.7530    0.0000 C   0  0  0  0  0  0  0  0  0  0  0  0
    5.7320   -2.2530    0.0000 C   0  0  0  0  0  0  0  0  0  0  0  0
    5.7320   -0.2530    0.0000 C   0  0  0  0  0  0  0  0  0  0  0  0
    6.5981   -1.7530    0.0000 C   0  0  0  0  0  0  0  0  0  0  0  0
    6.5981    1.2470    0.0000 C   0  0  0  0  0  0  0  0  0  0  0  0
    7.4641    0.7470    0.0000 C   0  0  0  0  0  0  0  0  0  0  0  0
    8.3301    1.2470    0.0000 C   0  0  0  0  0  0  0  0  0  0  0  0
    8.3301    2.2470    0.0000 C   0  0  0  0  0  0  0  0  0  0  0  0
    6.5981    2.2470    0.0000 C   0  0  0  0  0  0  0  0  0  0  0  0
    9.1962    3.7470    0.0000 C   0  0  0  0  0  0  0  0  0  0  0  0
    5.3900   -4.1926    0.0000 C   0  0  0  0  0  0  0  0  0  0  0  0
    8.3301    4.2470    0.0000 C   0  0  0  0  0  0  0  0  0  0  0  0
   10.0622    4.2470    0.0000 C   0  0  0  0  0  0  0  0  0  0  0  0
    8.3301    5.2470    0.0000 C   0  0  0  0  0  0  0  0  0  0  0  0
    7.4641   -2.2530    0.0000 C   0  0  0  0  0  0  0  0  0  0  0  0
    6.0329   -4.9587    0.0000 C   0  0  0  0  0  0  0  0  0  0  0  0
    5.6908   -5.8984    0.0000 C   0  0  0  0  0  0  0  0  0  0  0  0
    9.1962    5.7470    0.0000 C   0  0  0  0  0  0  0  0  0  0  0  0
    4.7059   -6.0720    0.0000 C   0  0  0  0  0  0  0  0  0  0  0  0
    4.0631   -5.3059    0.0000 C   0  0  0  0  0  0  0  0  0  0  0  0
    5.7320    2.7470    0.0000 C   0  0  0  0  0  0  0  0  0  0  0  0
   10.9282    3.7470    0.0000 C   0  0  0  0  0  0  0  0  0  0  0  0
    3.0783   -5.4795    0.0000 C   0  0  0  0  0  0  0  0  0  0  0  0
    7.4641    6.7470    0.0000 C   0  0  0  0  0  0  0  0  0  0  0  0
    6.5981    7.2470    0.0000 C   0  0  0  0  0  0  0  0  0  0  0  0
    0.0000    0.0000    0.0000 Na  0  0  0  0  0 15  0  0  0  0  0  0
  1  2  1  0
  1  3  1  0
  1  4  1  6
  2  5  1  0
  2  6  1  1
  3  7  1  0
  3  8  1  1
  9  4  1  1
  5 10  1  0
  5 11  1  6
  8 12  1  0
  9 13  1  0
  9 14  1  0
 10 15  1  6
 11 16  1  0
 13 17  1  0
 13 18  1  6
 14 19  1  0
 20 15  1  6
 16 21  1  0
 16 22  2  0
 16 23  2  0
 17 24  1  0
 17 25  1  1
 19 26  1  6
 20 27  1  0
 20 28  1  0
 24 29  1  6
 26 30  1  0
 26 31  2  0
 27 32  1  0
 27 33  1  1
 28 34  1  0
 28 35  1  1
 29 36  1  0
 32 37  1  0
 33 38  1  0
 33 39  2  0
 34 40  1  6
 37 41  1  1
 42 41  1  6
 42 43  1  0
 42 44  1  0
 43 45  1  0
 43 46  1  1
 44 47  1  0
 44 48  1  1
 45 49  1  0
 46 50  1  0
 47 51  1  6
 49 52  1  0
 50 53  1  0
 51 54  1  0
 53 55  1  0
 53 56  2  0
 53 57  2  0
 54 58  1  0
 54 59  2  0
  7 10  1  0
 19 24  1  0
 34 37  1  0
 47 49  1  0
 18 60  1  0
 60 61  2  0
 60 62  2  0
 60 63  1  0
  6 64  1  0
 64 65  2  0
 64 66  2  0
 64 67  1  0
 40 68  1  0
 68 69  2  0
 68 70  2  0
 68 71  1  0
 72 95  1  0
 72 97  2  0
 72 98  2  0
 72114  1  0
 73 82  1  0
 73 99  1  0
 73100  2  0
 73101  2  0
 74 85  1  0
 74102  1  0
 74104  2  0
 74105  2  0
 75 88  1  0
 75107  1  0
 75109  2  0
 75110  2  0
 76 93  1  0
 76111  1  0
 76112  2  0
 76113  2  0
 77119  1  0
 77120  1  0
 78119  1  0
 78121  1  0
 79118  1  0
 79127  1  0
 80124  1  0
 80125  1  0
 81124  1  0
 81126  1  0
 82117  1  0
 83129  1  0
 83134  1  0
 84127  1  0
 84136  1  0
 85123  1  0
 86122  1  0
 87128  1  0
 88132  1  0
 89131  1  0
 90133  1  0
 91134  1  0
 92135  1  0
 93138  1  0
 94137  1  0
 96137  2  0
103139  1  0
106139  2  0
108140  2  0
114116  1  0
115130  1  0
115140  1  0
116117  1  0
116119  1  0
117118  1  0
118120  1  0
120131  1  0
121122  1  0
121125  1  0
122123  1  0
123124  1  0
125137  1  0
126128  1  0
126129  1  0
127132  1  0
128130  1  0
129138  1  0
130134  1  0
132133  1  0
133135  1  0
135136  1  0
136139  1  0
140141  1  0
M  CHG  1 142   1
V   36 *
V   52 *
M  STY  1   1 SRU
M  SLB  1   1   1
M  SCN  1   1 HT 
M  SAL   1 15   1   2   3   4   5   6   7   8   9  10  11  12  13  14  15
M  SAL   1 15  16  17  18  19  20  21  22  23  24  25  26  27  28  29  30
M  SAL   1 15  31  32  33  34  35  37  38  39  40  41  42  43  44  45  46
M  SAL   1 15  47  48  49  50  51  53  54  55  56  57  58  59  60  61  62
M  SAL   1  9  63  64  65  66  67  68  69  70  71
M  SDI   1  4   12.3900  -23.4500   12.3900  -22.1200
M  SDI   1  4   35.0000   -9.9400   35.0000  -11.2700
M  SMT   1 n
M  END
