33309
     RDKit          2D

 21 23  0  0  0  0  0  0  0  0999 V2000
   12.1308   -0.8100    0.0000 S   0  0  0  0  0  0  0  0  0  0  0  0
    3.7320    0.6900    0.0000 O   0  0  0  0  0  0  0  0  0  0  0  0
    4.5981   -0.8100    0.0000 O   0  0  0  0  0  0  0  0  0  0  0  0
    9.0084    0.4947    0.0000 N   0  0  0  0  0  0  0  0  0  0  0  0
    9.0084   -1.1147    0.0000 N   0  0  0  0  0  0  0  0  0  0  0  0
    5.4641    0.6900    0.0000 N   0  0  0  0  0  0  0  0  0  0  0  0
   11.1798    0.4990    0.0000 N   0  0  0  0  0  0  0  0  0  0  0  0
    8.0622    0.1900    0.0000 C   0  0  0  0  0  0  0  0  0  0  0  0
    8.0622   -0.8100    0.0000 C   0  0  0  0  0  0  0  0  0  0  0  0
    7.1962    0.6900    0.0000 C   0  0  0  0  0  0  0  0  0  0  0  0
    6.3301    0.1900    0.0000 C   0  0  0  0  0  0  0  0  0  0  0  0
    9.5920   -0.3100    0.0000 C   0  0  0  0  0  0  0  0  0  0  0  0
    7.1962   -1.3100    0.0000 C   0  0  0  0  0  0  0  0  0  0  0  0
    6.3301   -0.8100    0.0000 C   0  0  0  0  0  0  0  0  0  0  0  0
    2.8660    0.1900    0.0000 C   0  0  0  0  0  0  0  0  0  0  0  0
   10.5920   -0.3100    0.0000 C   0  0  0  0  0  0  0  0  0  0  0  0
    2.0000    0.6900    0.0000 C   0  0  0  0  0  0  0  0  0  0  0  0
    2.8660   -0.8100    0.0000 C   0  0  0  0  0  0  0  0  0  0  0  0
    4.5981    0.1900    0.0000 C   0  0  0  0  0  0  0  0  0  0  0  0
   11.1798   -1.1190    0.0000 C   0  0  0  0  0  0  0  0  0  0  0  0
   12.1308    0.1900    0.0000 C   0  0  0  0  0  0  0  0  0  0  0  0
  1 20  1  0
  1 21  1  0
  2 15  1  0
  2 19  1  0
  3 19  2  0
  4  8  1  0
  4 12  1  0
  5  9  1  0
  5 12  2  0
  6 11  1  0
  6 19  1  0
  7 16  1  0
  7 21  2  0
  8  9  2  0
  8 10  1  0
  9 13  1  0
 10 11  2  0
 11 14  1  0
 12 16  1  0
 13 14  2  0
 15 17  1  0
 15 18  1  0
 16 20  2  0
M  END
