71576778
     RDKit          2D

 10  9  0  0  1  0  0  0  0  0999 V2000
    2.8660   -1.7500    0.0000 S   0  0  0  0  0  0  0  0  0  0  0  0
    6.3301    1.2500    0.0000 S   0  0  0  0  0  0  0  0  0  0  0  0
    4.5981    2.2500    0.0000 O   0  0  0  0  0  0  0  0  0  0  0  0
    2.8660    1.2500    0.0000 N   0  0  0  0  0  0  0  0  0  0  0  0
    5.4641    0.7500    0.0000 N   0  0  0  0  0  0  0  0  0  0  0  0
    3.7320    0.7500    0.0000 C   0  0  0  0  0  0  0  0  0  0  0  0
    3.7320   -0.2500    0.0000 C   0  0  0  0  0  0  0  0  0  0  0  0
    2.8660   -0.7500    0.0000 C   0  0  0  0  0  0  0  0  0  0  0  0
    4.5981    1.2500    0.0000 C   0  0  0  0  0  0  0  0  0  0  0  0
    2.0000   -2.2500    0.0000 C   0  0  0  0  0  0  0  0  0  0  0  0
  1  8  1  0
  1 10  1  0
  2  5  1  0
  3  9  2  0
  6  4  1  6
  5  9  1  0
  6  7  1  0
  6  9  1  0
  7  8  1  0
M  END
