 
 
 
 36 37  0  0  0  0  0  0  0  0999 V2000
   10.2362  -13.6880    0.0000 C   0  0  0  0  0  0  0  0  0  0  0  0
   10.2362  -15.0869    0.0000 N   0  0  0  0  0  0  0  0  0  0  0  0
   11.4477  -15.7864    0.0000 C   0  0  0  0  0  0  0  0  0  0  0  0
   12.6592  -15.0869    0.0000 C   0  0  0  0  0  0  0  0  0  0  0  0
   12.6592  -13.6880    0.0000 C   0  0  0  0  0  0  0  0  0  0  0  0
   11.4477  -12.9886    0.0000 N   0  0  0  0  0  0  0  0  0  0  0  0
   13.8707  -15.7864    0.0000 C   0  0  0  0  0  0  0  0  0  0  0  0
   15.0822  -15.0869    0.0000 C   0  0  0  0  0  0  0  0  0  0  0  0
   15.0822  -13.6880    0.0000 C   0  0  0  0  0  0  0  0  0  0  0  0
   13.8707  -12.9886    0.0000 C   0  0  0  0  0  0  0  0  0  0  0  0
   11.4477  -17.1854    0.0000 N   0  0  0  0  0  0  0  0  0  0  0  0
   16.2964  -16.1379    0.0000 N   0  0  0  0  0  0  0  0  0  0  0  0
   17.5098  -15.4373    0.0000 C   0  0  0  0  0  0  0  0  0  0  0  0
   18.7220  -16.1364    0.0000 C   0  0  0  0  0  0  0  0  0  0  0  0
   19.9336  -15.4369    0.0000 C   0  0  0  0  0  0  0  0  0  0  0  0
   12.6599  -17.8852    0.0000 C   0  0  0  0  0  0  0  0  0  0  0  0
   12.6599  -19.2837    0.0000 C   0  0  0  0  0  0  0  0  0  0  0  0
   13.8714  -19.9832    0.0000 C   0  0  0  0  0  0  0  0  0  0  0  0
   15.0828  -19.2837    0.0000 C   0  0  0  0  0  0  0  0  0  0  0  0
   15.0828  -17.8852    0.0000 C   0  0  0  0  0  0  0  0  0  0  0  0
   13.8714  -17.1858    0.0000 C   0  0  0  0  0  0  0  0  0  0  0  0
   16.2966  -19.9844    0.0000 F   0  0  0  0  0  0  0  0  0  0  0  0
   13.8714  -21.3879    0.0000 Cl  0  0  0  0  0  0  0  0  0  0  0  0
   17.5093  -14.0700    0.0000 O   0  0  0  0  0  0  0  0  0  0  0  0
   16.2568  -13.0102    0.0000 O   0  0  0  0  0  0  0  0  0  0  0  0
   16.2568  -11.6102    0.0000 C   0  0  0  0  0  0  0  0  0  0  0  0
   17.4524  -10.9199    0.0000 C   0  0  0  0  0  0  0  0  0  0  0  0
   18.6480  -11.6104    0.0000 C   0  0  0  0  0  0  0  0  0  0  0  0
   19.8353  -10.9249    0.0000 N   0  0  0  0  0  0  0  0  0  0  0  0
   21.0265  -11.6129    0.0000 C   0  0  0  0  0  0  0  0  0  0  0  0
   22.2390  -10.9131    0.0000 C   0  0  0  0  0  0  0  0  0  0  0  0
   22.2392   -9.5131    0.0000 O   0  0  0  0  0  0  0  0  0  0  0  0
   21.0480   -8.8251    0.0000 C   0  0  0  0  0  0  0  0  0  0  0  0
   19.8354   -9.5249    0.0000 C   0  0  0  0  0  0  0  0  0  0  0  0
   25.4100  -17.7100    0.0000 Cl  0  0  0  0  0  0  0  0  0  0  0  0
   25.4100  -17.7100    0.0000 Cl  0  0  0  0  0  0  0  0  0  0  0  0
  1  2  1  0     0  0
  2  3  2  0     0  0
  3  4  1  0     0  0
  4  5  1  0     0  0
  5  6  1  0     0  0
  1  6  2  0     0  0
  4  7  2  0     0  0
  7  8  1  0     0  0
  8  9  2  0     0  0
  9 10  1  0     0  0
  5 10  2  0     0  0
  3 11  1  0     0  0
  8 12  1  0     0  0
 12 13  1  0     0  0
 13 14  1  0     0  0
 14 15  2  0     0  0
 11 16  1  0     0  0
 16 17  2  0     0  0
 17 18  1  0     0  0
 18 19  2  0     0  0
 19 20  1  0     0  0
 20 21  2  0     0  0
 16 21  1  0     0  0
 19 22  1  0     0  0
 18 23  1  0     0  0
 13 24  2  0     0  0
  9 25  1  0     0  0
 25 26  1  0     0  0
 26 27  1  0     0  0
 27 28  1  0     0  0
 28 29  1  0     0  0
 29 30  1  0     0  0
 30 31  1  0     0  0
 31 32  1  0     0  0
 32 33  1  0     0  0
 33 34  1  0     0  0
 29 34  1  0     0  0
M  STY  1   1 MUL
M  SLB  1   1   1
M  SCN  1   1 HT 
M  SAL   1  2  35  36
M  SPA   1  1  35
M  SDI   1  4   23.8000  -18.5500   23.8000  -16.7300
M  SDI   1  4   26.3200  -16.7300   26.3200  -18.5500
M  SMT   1 2
M  END
