 
     RDKit          2D

 35 38  0  0  1  0  0  0  0  0999 V2000
   25.7532  -19.2868    0.0000 C   0  0  0  0  0  0  0  0  0  0  0  0
   25.7532  -20.6665    0.0000 C   0  0  0  0  0  0  0  0  0  0  0  0
   26.9481  -21.3564    0.0000 C   0  0  0  0  0  0  0  0  0  0  0  0
   28.1430  -20.6665    0.0000 C   0  0  0  0  0  0  0  0  0  0  0  0
   28.1430  -19.2868    0.0000 C   0  0  0  0  0  0  0  0  0  0  0  0
   26.9481  -18.5969    0.0000 C   0  0  0  0  0  0  0  0  0  0  0  0
   29.3379  -21.3564    0.0000 C   0  0  0  0  0  0  0  0  0  0  0  0
   30.5327  -20.6665    0.0000 C   0  0  0  0  0  0  0  0  0  0  0  0
   30.5327  -19.2868    0.0000 C   0  0  0  0  0  0  0  0  0  0  0  0
   29.3379  -18.5969    0.0000 C   0  0  0  0  0  0  0  0  0  0  0  0
   31.7276  -18.5969    0.0000 C   0  0  0  0  0  0  0  0  0  0  0  0
   31.7276  -17.2172    0.0000 C   0  0  0  0  0  0  0  0  0  0  0  0
   30.5327  -16.5273    0.0000 C   0  0  0  0  0  0  0  0  0  0  0  0
   29.3379  -17.2172    0.0000 C   0  0  0  0  0  0  0  0  0  0  0  0
   34.1173  -18.5969    0.0000 C   0  0  0  0  0  0  0  0  0  0  0  0
   34.1173  -17.2172    0.0000 C   0  0  0  0  0  0  0  0  0  0  0  0
   32.9225  -16.5273    0.0000 C   0  0  0  0  0  0  0  0  0  0  0  0
   32.9225  -14.7286    0.0000 C   0  0  0  0  0  0  0  0  0  0  0  0
   34.1173  -15.8375    0.0000 O   0  0  0  0  0  0  0  0  0  0  0  0
   35.3153  -16.5120    0.0000 C   0  0  0  0  0  0  0  0  0  0  0  0
   35.3454  -17.8829    0.0000 O   0  0  0  0  0  0  0  0  0  0  0  0
   36.4875  -15.8004    0.0000 C   0  0  0  0  0  0  0  0  0  0  0  0
   37.6972  -16.4639    0.0000 C   0  0  0  0  0  0  0  0  0  0  0  0
   38.8604  -15.7579    0.0000 C   0  0  0  0  0  0  0  0  0  0  0  0
   40.0674  -16.4198    0.0000 C   0  0  0  0  0  0  0  0  0  0  0  0
   31.7276  -15.9755    0.0000 C   0  0  0  0  0  0  0  0  0  0  0  0
   28.1450  -16.5285    0.0000 O   0  0  0  0  0  0  0  0  0  0  0  0
   28.1430  -17.9071    0.0000 C   0  0  0  0  0  0  0  0  0  0  0  0
   24.5584  -21.3564    0.0000 O   0  0  0  0  0  0  0  0  0  0  0  0
   34.1300  -14.0313    0.0000 C   0  0  0  0  0  0  0  0  0  0  0  0
   31.6806  -14.0121    0.0000 O   0  0  0  0  0  0  0  0  0  0  0  0
   35.3507  -14.7363    0.0000 O   0  0  0  0  0  0  0  0  0  0  0  0
   36.5480  -14.0456    0.0000 C   0  0  0  0  0  0  0  0  0  0  0  0
   37.7646  -14.7485    0.0000 C   0  0  0  0  0  0  0  0  0  0  0  0
   36.5484  -12.6700    0.0000 O   0  0  0  0  0  0  0  0  0  0  0  0
  1  2  1  0
  2  3  1  0
  3  4  2  0
  4  5  1  0
  5  6  1  0
  1  6  2  0
  4  7  1  0
  7  8  1  0
  9  8  1  6
  9 10  1  0
  5 10  1  0
  9 11  1  0
 11 12  1  0
 12 13  1  0
 13 14  1  0
 10 14  1  1
 11 15  1  1
 15 16  1  0
 16 17  1  0
 12 17  1  0
 17 18  1  0
 17 19  1  6
 19 20  1  0
 20 21  2  0
 20 22  1  0
 22 23  1  0
 23 24  1  0
 24 25  1  0
 12 26  1  1
 14 27  1  1
  5 28  1  1
  2 29  2  0
 18 30  1  0
 18 31  2  0
 30 32  1  0
 32 33  1  0
 33 34  1  0
 33 35  2  0
M  END
