9002
     RDKit          2D

 16 16  0  0  0  0  0  0  0  0999 V2000
    4.2690    1.4050    0.0000 S   0  0  0  0  0  0  0  0  0  0  0  0
    6.0010   -1.5950    0.0000 S   0  0  0  0  0  0  0  0  0  0  0  0
    2.5369    0.4050    0.0000 O   0  0  0  0  0  0  0  0  0  0  0  0
    2.5369   -1.5950    0.0000 O   0  0  0  0  0  0  0  0  0  0  0  0
    4.2690    2.4050    0.0000 O   0  0  0  0  0  0  0  0  0  0  0  0
    6.8671   -2.0950    0.0000 O   0  0  0  0  0  0  0  0  0  0  0  0
    5.2690    1.4050    0.0000 O   0  0  0  0  0  0  0  0  0  0  0  0
    3.2690    1.4050    0.0000 O   0  0  0  0  0  0  0  0  0  0  0  0
    5.5010   -2.4610    0.0000 O   0  0  0  0  0  0  0  0  0  0  0  0
    6.5010   -0.7290    0.0000 O   0  0  0  0  0  0  0  0  0  0  0  0
    4.2690    0.4050    0.0000 C   0  0  0  0  0  0  0  0  0  0  0  0
    5.1350   -1.0950    0.0000 C   0  0  0  0  0  0  0  0  0  0  0  0
    5.1350   -0.0950    0.0000 C   0  0  0  0  0  0  0  0  0  0  0  0
    3.4030   -0.0950    0.0000 C   0  0  0  0  0  0  0  0  0  0  0  0
    4.2690   -1.5950    0.0000 C   0  0  0  0  0  0  0  0  0  0  0  0
    3.4030   -1.0950    0.0000 C   0  0  0  0  0  0  0  0  0  0  0  0
  1  5  1  0
  1  7  2  0
  1  8  2  0
  1 11  1  0
  2  6  1  0
  2  9  2  0
  2 10  2  0
  2 12  1  0
  3 14  1  0
  4 16  1  0
 11 13  2  0
 11 14  1  0
 12 13  1  0
 12 15  2  0
 14 16  2  0
 15 16  1  0
M  END
