168322416
     RDKit          2D

 48 50  0  0  1  0  0  0  0  0999 V2000
    7.1962    3.5000    0.0000 P   0  0  0  0  0  0  0  0  0  0  0  0
   10.6603    2.5000    0.0000 P   0  0  0  0  0  0  0  0  0  0  0  0
    3.7320   -3.5000    0.0000 P   0  0  0  0  0  0  0  0  0  0  0  0
    8.9282    0.5000    0.0000 O   0  0  0  0  0  0  0  0  0  0  0  0
    6.3301    1.0000    0.0000 O   0  0  0  0  0  0  0  0  0  0  0  0
    9.7942   -1.0000    0.0000 O   0  0  0  0  0  0  0  0  0  0  0  0
    5.4641   -0.5000    0.0000 O   0  0  0  0  0  0  0  0  0  0  0  0
   11.5263    1.0000    0.0000 O   0  0  0  0  0  0  0  0  0  0  0  0
    6.3301   -1.0000    0.0000 O   0  0  0  0  0  0  0  0  0  0  0  0
    8.0622   -2.0000    0.0000 O   0  0  0  0  0  0  0  0  0  0  0  0
    2.8660   -1.0000    0.0000 O   0  0  0  0  0  0  0  0  0  0  0  0
   11.5263   -2.0000    0.0000 O   0  0  0  0  0  0  0  0  0  0  0  0
    4.5981    2.0000    0.0000 O   0  0  0  0  0  0  0  0  0  0  0  0
    2.8660    1.0000    0.0000 O   0  0  0  0  0  0  0  0  0  0  0  0
    7.1962    2.5000    0.0000 O   0  0  0  0  0  0  0  0  0  0  0  0
   13.2583   -1.0000    0.0000 O   0  0  0  0  0  0  0  0  0  0  0  0
   13.2583    1.0000    0.0000 O   0  0  0  0  0  0  0  0  0  0  0  0
    9.7942    2.0000    0.0000 O   0  0  0  0  0  0  0  0  0  0  0  0
    3.7320   -2.5000    0.0000 O   0  0  0  0  0  0  0  0  0  0  0  0
    7.1962    4.5000    0.0000 O   0  0  0  0  0  0  0  0  0  0  0  0
    6.1962    3.5000    0.0000 O   0  0  0  0  0  0  0  0  0  0  0  0
    8.1962    3.5000    0.0000 O   0  0  0  0  0  0  0  0  0  0  0  0
   11.5263    3.0000    0.0000 O   0  0  0  0  0  0  0  0  0  0  0  0
   10.1603    3.3660    0.0000 O   0  0  0  0  0  0  0  0  0  0  0  0
    3.7320   -4.5000    0.0000 O   0  0  0  0  0  0  0  0  0  0  0  0
    2.7320   -3.5000    0.0000 O   0  0  0  0  0  0  0  0  0  0  0  0
   11.1603    1.6340    0.0000 O   0  0  0  0  0  0  0  0  0  0  0  0
    4.7320   -3.5000    0.0000 O   0  0  0  0  0  0  0  0  0  0  0  0
    7.1962    0.5000    0.0000 C   0  0  0  0  0  0  0  0  0  0  0  0
    7.1962   -0.5000    0.0000 C   0  0  0  0  0  0  0  0  0  0  0  0
    8.0622    1.0000    0.0000 C   0  0  0  0  0  0  0  0  0  0  0  0
    8.0622   -1.0000    0.0000 C   0  0  0  0  0  0  0  0  0  0  0  0
    8.9282   -0.5000    0.0000 C   0  0  0  0  0  0  0  0  0  0  0  0
   10.6603   -0.5000    0.0000 C   0  0  0  0  0  0  0  0  0  0  0  0
    5.4641    0.5000    0.0000 C   0  0  0  0  0  0  0  0  0  0  0  0
   11.5263   -1.0000    0.0000 C   0  0  0  0  0  0  0  0  0  0  0  0
    4.5981    1.0000    0.0000 C   0  0  0  0  0  0  0  0  0  0  0  0
   10.6603    0.5000    0.0000 C   0  0  0  0  0  0  0  0  0  0  0  0
    3.7320    0.5000    0.0000 C   0  0  0  0  0  0  0  0  0  0  0  0
    3.7320   -0.5000    0.0000 C   0  0  0  0  0  0  0  0  0  0  0  0
    4.5981   -1.0000    0.0000 C   0  0  0  0  0  0  0  0  0  0  0  0
   12.3923   -0.5000    0.0000 C   0  0  0  0  0  0  0  0  0  0  0  0
    8.0622    2.0000    0.0000 C   0  0  0  0  0  0  0  0  0  0  0  0
   12.3923    0.5000    0.0000 C   0  0  0  0  0  0  0  0  0  0  0  0
    9.7942    1.0000    0.0000 C   0  0  0  0  0  0  0  0  0  0  0  0
    4.5981   -2.0000    0.0000 C   0  0  0  0  0  0  0  0  0  0  0  0
    2.0000   -0.5000    0.0000 C   0  0  0  0  0  0  0  0  0  0  0  0
   13.2583    2.0000    0.0000 C   0  0  0  0  0  0  0  0  0  0  0  0
  1 15  1  0
  1 20  1  0
  1 21  1  0
  1 22  2  0
  2 18  1  0
  2 23  1  0
  2 24  1  0
  2 27  2  0
  3 19  1  0
  3 25  1  0
  3 26  1  0
  3 28  2  0
  4 31  1  0
  4 33  1  0
 29  5  1  6
 35  5  1  6
 33  6  1  1
 34  6  1  6
  7 35  1  0
  7 41  1  0
  8 38  1  0
  8 44  1  0
 30  9  1  1
 32 10  1  6
 40 11  1  1
 11 47  1  0
 36 12  1  1
 37 13  1  1
 39 14  1  6
 15 43  1  0
 42 16  1  6
 44 17  1  1
 17 48  1  0
 18 45  1  0
 19 46  1  0
 29 30  1  0
 29 31  1  0
 30 32  1  0
 31 43  1  1
 32 33  1  0
 34 36  1  0
 34 38  1  0
 35 37  1  0
 36 42  1  0
 37 39  1  0
 38 45  1  1
 39 40  1  0
 40 41  1  0
 41 46  1  6
 42 44  1  0
M  END
