 
     RDKit          2D

 48 50  0  0  0  0  0  0  0  0999 V2000
   13.8600  -15.8900    0.0000 C   0  0  0  0  0  0  0  0  0  0  0  0
   13.8600  -17.2900    0.0000 C   0  0  0  0  0  0  0  0  0  0  0  0
   15.0724  -17.9900    0.0000 C   0  0  0  0  0  0  0  0  0  0  0  0
   16.2849  -17.2900    0.0000 C   0  0  0  0  0  0  0  0  0  0  0  0
   16.2849  -15.8900    0.0000 C   0  0  0  0  0  0  0  0  0  0  0  0
   15.0724  -15.1900    0.0000 C   0  0  0  0  0  0  0  0  0  0  0  0
   17.5160  -15.1790    0.0000 C   0  0  0  0  0  0  0  0  0  0  0  0
   18.7212  -15.8747    0.0000 C   0  0  0  0  0  0  0  0  0  0  0  0
   18.7216  -17.2896    0.0000 C   0  0  0  0  0  0  0  0  0  0  0  0
   19.9342  -17.9893    0.0000 C   0  0  0  0  0  0  0  0  0  0  0  0
   21.1465  -17.2889    0.0000 C   0  0  0  0  0  0  0  0  0  0  0  0
   21.1460  -15.8739    0.0000 C   0  0  0  0  0  0  0  0  0  0  0  0
   19.9334  -15.1743    0.0000 N   0  0  0  0  0  0  0  0  0  0  0  0
   17.5157  -13.7901    0.0000 C   0  0  0  0  0  0  0  0  0  0  0  0
   18.7281  -13.0901    0.0000 C   0  0  0  0  0  0  0  0  0  0  0  0
   18.7281  -11.6901    0.0000 N   0  0  0  0  0  0  0  0  0  0  0  0
   19.9643  -10.9760    0.0000 C   0  0  0  0  0  0  0  0  0  0  0  0
   17.5397  -11.0038    0.0000 C   0  0  0  0  0  0  0  0  0  0  0  0
   12.6476  -17.9900    0.0000 Cl  0  0  0  0  0  0  0  0  0  0  0  0
   13.8600  -15.8900    0.0000 C   0  0  0  0  0  0  0  0  0  0  0  0
   13.8600  -17.2900    0.0000 C   0  0  0  0  0  0  0  0  0  0  0  0
   15.0724  -17.9900    0.0000 C   0  0  0  0  0  0  0  0  0  0  0  0
   16.2849  -17.2900    0.0000 C   0  0  0  0  0  0  0  0  0  0  0  0
   16.2849  -15.8900    0.0000 C   0  0  0  0  0  0  0  0  0  0  0  0
   15.0724  -15.1900    0.0000 C   0  0  0  0  0  0  0  0  0  0  0  0
   17.5160  -15.1790    0.0000 C   0  0  0  0  0  0  0  0  0  0  0  0
   18.7212  -15.8747    0.0000 C   0  0  0  0  0  0  0  0  0  0  0  0
   18.7216  -17.2896    0.0000 C   0  0  0  0  0  0  0  0  0  0  0  0
   19.9342  -17.9893    0.0000 C   0  0  0  0  0  0  0  0  0  0  0  0
   21.1465  -17.2889    0.0000 C   0  0  0  0  0  0  0  0  0  0  0  0
   21.1460  -15.8739    0.0000 C   0  0  0  0  0  0  0  0  0  0  0  0
   19.9334  -15.1743    0.0000 N   0  0  0  0  0  0  0  0  0  0  0  0
   17.5157  -13.7901    0.0000 C   0  0  0  0  0  0  0  0  0  0  0  0
   18.7281  -13.0901    0.0000 C   0  0  0  0  0  0  0  0  0  0  0  0
   18.7281  -11.6901    0.0000 N   0  0  0  0  0  0  0  0  0  0  0  0
   19.9643  -10.9760    0.0000 C   0  0  0  0  0  0  0  0  0  0  0  0
   17.5397  -11.0038    0.0000 C   0  0  0  0  0  0  0  0  0  0  0  0
   12.6476  -17.9900    0.0000 Cl  0  0  0  0  0  0  0  0  0  0  0  0
   -1.0717   -0.2062    0.0000 C   0  0  0  0  0  0  0  0  0  0  0  0
   -1.0717   -1.0313    0.0000 C   0  0  0  0  0  0  0  0  0  0  0  0
   -0.3572   -1.4438    0.0000 C   0  0  0  0  0  0  0  0  0  0  0  0
    0.3572   -1.0313    0.0000 C   0  0  0  0  0  0  0  0  0  0  0  0
    0.3572   -0.2062    0.0000 C   0  0  0  0  0  0  0  0  0  0  0  0
   -0.3572    0.2062    0.0000 C   0  0  0  0  0  0  0  0  0  0  0  0
   -0.3572    1.0313    0.0000 C   0  0  0  0  0  0  0  0  0  0  0  0
   -1.0717    1.4438    0.0000 *   0  0  0  0  0  0  0  0  0  0  0  0
    0.3572    1.4438    0.0000 C   0  0  0  0  0  0  0  0  0  0  0  0
    1.0717    1.0313    0.0000 *   0  0  0  0  0  0  0  0  0  0  0  0
  1  2  2  0
  2  3  1  0
  3  4  2  0
  4  5  1  0
  5  6  2  0
  1  6  1  0
  5  7  1  0
  7  8  1  0
  8  9  2  0
  9 10  1  0
 10 11  2  0
 11 12  1  0
 12 13  2  0
  8 13  1  0
  7 14  1  0
 14 15  1  0
 15 16  1  0
 16 17  1  0
 16 18  1  0
  2 19  1  0
 20 21  2  0
 21 22  1  0
 22 23  2  0
 23 24  1  0
 24 25  2  0
 20 25  1  0
 24 26  1  0
 26 27  1  0
 27 28  2  0
 28 29  1  0
 29 30  2  0
 30 31  1  0
 31 32  2  0
 27 32  1  0
 26 33  1  0
 33 34  1  0
 34 35  1  0
 35 36  1  0
 35 37  1  0
 21 38  1  0
 39 40  2  0
 40 41  1  0
 41 42  2  0
 42 43  1  0
 43 44  2  0
 44 39  1  0
 44 45  1  0
 45 46  1  0
 45 47  1  0
 47 48  1  0
V   46 *
V   48 *
M  END
