 
     RDKit          2D

 98112  0  0  1  0  0  0  0  0999 V2000
   21.5384  -23.5506    0.0000 C   0  0  0  0  0  0  0  0  0  0  0  0
   21.5384  -22.2288    0.0000 C   0  0  0  0  0  0  0  0  0  0  0  0
   22.7210  -24.2462    0.0000 C   0  0  0  0  0  0  0  0  0  0  0  0
   20.4253  -24.1767    0.0000 C   0  0  0  0  0  0  0  0  0  0  0  0
   22.7210  -22.9245    0.0000 C   0  0  0  0  0  0  0  0  0  0  0  0
   20.4253  -21.6027    0.0000 C   0  0  0  0  0  0  0  0  0  0  0  0
   22.7210  -21.6027    0.0000 C   0  0  0  0  0  0  0  0  0  0  0  0
   23.8341  -23.5506    0.0000 C   0  0  0  0  0  0  0  0  0  0  0  0
   22.7210  -25.4984    0.0000 C   0  0  0  0  0  0  0  0  0  0  0  0
   19.1036  -22.8548    0.0000 O   0  0  0  0  0  0  0  0  0  0  0  0
   20.4253  -25.4984    0.0000 C   0  0  0  0  0  0  0  0  0  0  0  0
   24.9471  -22.9245    0.0000 C   0  0  0  0  0  0  0  0  0  0  0  0
   20.4253  -20.2809    0.0000 C   0  0  0  0  0  0  0  0  0  0  0  0
   23.8341  -22.2983    0.0000 C   0  0  0  0  0  0  0  0  0  0  0  0
   22.7210  -20.2809    0.0000 C   0  0  0  0  0  0  0  0  0  0  0  0
   24.9471  -24.2462    0.0000 N   0  0  0  0  0  0  0  0  0  0  0  0
   21.5384  -26.1941    0.0000 C   0  0  0  0  0  0  0  0  0  0  0  0
   19.3123  -26.1941    0.0000 O   0  0  0  0  0  0  0  0  0  0  0  0
   21.6080  -19.6549    0.0000 C   0  0  0  0  0  0  0  0  0  0  0  0
   19.3123  -19.6549    0.0000 O   0  0  0  0  0  0  0  0  0  0  0  0
   26.3437  -24.2462    0.0000 C   0  0  0  0  0  0  0  0  0  0  0  0
   26.2749  -14.7048    0.0000 C   0  0  0  0  0  0  0  0  0  0  0  0
   26.2458  -13.3977    0.0000 C   0  0  0  0  0  0  0  0  0  0  0  0
   27.3733  -15.3667    0.0000 C   0  0  0  0  0  0  0  0  0  0  0  0
   25.1072  -15.3498    0.0000 C   0  0  0  0  0  0  0  0  0  0  0  0
   27.3733  -14.0373    0.0000 C   0  0  0  0  0  0  0  0  0  0  0  0
   25.1072  -12.7471    0.0000 C   0  0  0  0  0  0  0  0  0  0  0  0
   27.3789  -12.7471    0.0000 C   0  0  0  0  0  0  0  0  0  0  0  0
   28.5120  -14.7160    0.0000 C   0  0  0  0  0  0  0  0  0  0  0  0
   27.3676  -16.6736    0.0000 C   0  0  0  0  0  0  0  0  0  0  0  0
   23.8057  -13.9588    0.0000 O   0  0  0  0  0  0  0  0  0  0  0  0
   25.1014  -16.6569    0.0000 C   0  0  0  0  0  0  0  0  0  0  0  0
   29.6861  -14.0831    0.0000 C   0  0  0  0  0  0  0  0  0  0  0  0
   25.1072  -11.4290    0.0000 C   0  0  0  0  0  0  0  0  0  0  0  0
   28.5176  -13.4034    0.0000 C   0  0  0  0  0  0  0  0  0  0  0  0
   27.3789  -11.4290    0.0000 C   0  0  0  0  0  0  0  0  0  0  0  0
   29.6509  -15.3780    0.0000 N   0  0  0  0  0  0  0  0  0  0  0  0
   26.2289  -17.3188    0.0000 C   0  0  0  0  0  0  0  0  0  0  0  0
   23.9572  -17.3131    0.0000 O   0  0  0  0  0  0  0  0  0  0  0  0
   26.2514  -10.7725    0.0000 C   0  0  0  0  0  0  0  0  0  0  0  0
   23.9684  -10.7725    0.0000 O   0  0  0  0  0  0  0  0  0  0  0  0
   22.8297  -11.4290    0.0000 C   0  0  0  0  0  0  0  0  0  0  0  0
   31.0509  -15.3780    0.0000 C   0  0  0  0  0  0  0  0  0  0  0  0
   24.4357  -18.0452    0.0000 C   0  0  0  0  0  0  0  0  0  0  0  0
   24.4417  -16.6398    0.0000 C   0  0  0  0  0  0  0  0  0  0  0  0
   25.6420  -18.7478    0.0000 C   0  0  0  0  0  0  0  0  0  0  0  0
   23.2296  -18.7419    0.0000 C   0  0  0  0  0  0  0  0  0  0  0  0
   23.2296  -15.9430    0.0000 C   0  0  0  0  0  0  0  0  0  0  0  0
   25.6536  -15.9489    0.0000 C   0  0  0  0  0  0  0  0  0  0  0  0
   25.6361  -20.1471    0.0000 C   0  0  0  0  0  0  0  0  0  0  0  0
   26.8598  -18.0509    0.0000 N   0  0  0  0  0  0  0  0  0  0  0  0
   22.0116  -18.0452    0.0000 C   0  0  0  0  0  0  0  0  0  0  0  0
   22.0116  -16.6398    0.0000 C   0  0  0  0  0  0  0  0  0  0  0  0
   26.8656  -16.6516    0.0000 C   0  0  0  0  0  0  0  0  0  0  0  0
   26.8947  -20.8555    0.0000 C   0  0  0  0  0  0  0  0  0  0  0  0
   20.7996  -18.7419    0.0000 O   0  0  0  0  0  0  0  0  0  0  0  0
   20.7996  -15.9430    0.0000 O   0  0  0  0  0  0  0  0  0  0  0  0
   28.0950  -20.1354    0.0000 C   0  0  0  0  0  0  0  0  0  0  0  0
   26.8656  -22.2491    0.0000 C   0  0  0  0  0  0  0  0  0  0  0  0
   19.5875  -18.0452    0.0000 C   0  0  0  0  0  0  0  0  0  0  0  0
   19.5875  -16.6398    0.0000 C   0  0  0  0  0  0  0  0  0  0  0  0
   29.3188  -20.8206    0.0000 C   0  0  0  0  0  0  0  0  0  0  0  0
   28.0893  -22.9343    0.0000 C   0  0  0  0  0  0  0  0  0  0  0  0
   29.3596  -22.2199    0.0000 C   0  0  0  0  0  0  0  0  0  0  0  0
   30.4783  -20.1002    0.0000 O   0  0  0  0  0  0  0  0  0  0  0  0
   30.5134  -22.9049    0.0000 O   0  0  0  0  0  0  0  0  0  0  0  0
   31.6800  -20.7586    0.0000 C   0  0  0  0  0  0  0  0  0  0  0  0
   31.7371  -22.1981    0.0000 C   0  0  0  0  0  0  0  0  0  0  0  0
   24.7694  -15.9981    0.0000 C   0  0  0  0  0  0  0  0  0  0  0  0
   23.8406  -17.0450    0.0000 C   0  0  0  0  0  0  0  0  0  0  0  0
   24.7869  -14.6101    0.0000 C   0  0  0  0  0  0  0  0  0  0  0  0
   26.0565  -16.5556    0.0000 O   0  0  0  0  0  0  0  0  0  0  0  0
   24.5473  -18.2551    0.0000 C   0  0  0  0  0  0  0  0  0  0  0  0
   22.4463  -17.0502    0.0000 C   0  0  0  0  0  0  0  0  0  0  0  0
   23.5774  -13.9007    0.0000 C   0  0  0  0  0  0  0  0  0  0  0  0
   26.0723  -13.9122    0.0000 N   0  0  0  0  0  0  0  0  0  0  0  0
   25.9160  -17.9548    0.0000 C   0  0  0  0  0  0  0  0  0  0  0  0
   23.8666  -19.5297    0.0000 C   0  0  0  0  0  0  0  0  0  0  0  0
   21.7566  -18.2733    0.0000 C   0  0  0  0  0  0  0  0  0  0  0  0
   23.5832  -12.5049    0.0000 C   0  0  0  0  0  0  0  0  0  0  0  0
   22.3793  -14.6042    0.0000 C   0  0  0  0  0  0  0  0  0  0  0  0
   26.0080  -12.5108    0.0000 C   0  0  0  0  0  0  0  0  0  0  0  0
   27.2060  -14.6101    0.0000 C   0  0  0  0  0  0  0  0  0  0  0  0
   22.4654  -19.5458    0.0000 C   0  0  0  0  0  0  0  0  0  0  0  0
   24.5695  -20.6521    0.0000 O   0  0  0  0  0  0  0  0  0  0  0  0
   22.3793  -11.8072    0.0000 C   0  0  0  0  0  0  0  0  0  0  0  0
   24.7985  -11.8130    0.0000 C   0  0  0  0  0  0  0  0  0  0  0  0
   21.1698  -13.9007    0.0000 C   0  0  0  0  0  0  0  0  0  0  0  0
   21.7746  -20.6860    0.0000 O   0  0  0  0  0  0  0  0  0  0  0  0
   23.8767  -21.8705    0.0000 C   0  0  0  0  0  0  0  0  0  0  0  0
   21.1698  -12.4992    0.0000 C   0  0  0  0  0  0  0  0  0  0  0  0
   19.8324  -14.3311    0.0000 O   0  0  0  0  0  0  0  0  0  0  0  0
   19.8381  -12.0630    0.0000 O   0  0  0  0  0  0  0  0  0  0  0  0
   19.0125  -13.1971    0.0000 C   0  0  0  0  0  0  0  0  0  0  0  0
   22.3822  -15.9956    0.0000 O   0  0  0  0  0  0  0  0  0  0  0  0
   21.1788  -16.6936    0.0000 C   0  0  0  0  0  0  0  0  0  0  0  0
   20.3488  -20.6928    0.0000 C   0  0  0  0  0  0  0  0  0  0  0  0
   26.9802  -18.9026    0.0000 O   0  0  0  0  0  0  0  0  0  0  0  0
  1  2  1  0
  1  3  1  0
  1  4  1  0
  1  5  1  1
  2  6  2  0
  2  7  1  0
  3  8  1  0
  3  9  1  6
  4 10  1  6
  4 11  1  0
  5 12  1  0
  6 13  1  0
  7 14  1  0
  7 15  2  0
  8 16  1  0
  9 17  2  0
 11 18  1  6
 13 19  2  0
 13 20  1  0
  6 10  1  0
  8 14  1  1
 11 17  1  0
 12 16  1  0
 15 19  1  0
 16 21  1  0
 22 23  1  0
 22 24  1  0
 22 25  1  0
 22 26  1  1
 23 27  2  0
 23 28  1  0
 24 29  1  0
 24 30  1  6
 25 31  1  6
 25 32  1  0
 26 33  1  0
 27 34  1  0
 28 35  1  0
 28 36  2  0
 29 37  1  0
 30 38  2  0
 32 39  1  6
 34 40  2  0
 34 41  1  0
 41 42  1  0
 27 31  1  0
 29 35  1  1
 32 38  1  0
 33 37  1  0
 36 40  1  0
 37 43  1  0
 44 45  1  0
 44 46  1  0
 44 47  2  0
 45 48  2  0
 45 49  1  0
 46 50  1  0
 46 51  2  0
 47 52  1  0
 48 53  1  0
 49 54  2  0
 50 55  1  0
 52 56  1  0
 53 57  1  0
 55 58  2  0
 55 59  1  0
 56 60  1  0
 57 61  1  0
 58 62  1  0
 59 63  2  0
 62 64  2  0
 62 65  1  0
 64 66  1  0
 51 54  1  0
 52 53  2  0
 63 64  1  0
 65 67  1  0
 66 68  1  0
 70 73  2  0
 70 74  1  0
 71 75  1  0
 71 76  1  1
 72 77  1  0
 73 78  1  0
 74 79  2  0
 75 80  2  0
 75 81  1  0
 76 82  1  0
 76 83  1  0
 78 84  2  0
 78 85  1  0
 80 86  1  0
 80 87  1  0
 81 88  2  0
 84 89  1  0
 85 90  1  0
 86 91  2  0
 88 92  1  0
 91 93  1  0
 92 94  1  0
 73 77  1  0
 79 84  1  0
 82 87  1  0
 88 91  1  0
 93 94  1  0
 69 70  1  0
 69 71  1  0
 81 95  1  0
 69 72  1  1
 95 96  1  0
 89 97  1  0
 77 98  2  0
M  END
