1396812-44-4.mol
     RDKit          2D

 23 25  0  0  0  0  0  0  0  0999 V2000
   -1.1530    0.5795    0.0000 O   0  0  0  0  0  0  0  0  0  0  0  0
   -0.3461    0.4080    0.0000 N   0  0  0  0  0  0  0  0  0  0  0  0
   -0.2598   -0.4125    0.0000 C   0  0  0  0  0  0  0  0  0  0  0  0
   -1.0135   -0.7481    0.0000 C   0  0  0  0  0  0  0  0  0  0  0  0
   -1.5655   -0.1350    0.0000 C   0  0  0  0  0  0  0  0  0  0  0  0
    0.4546   -0.8250    0.0000 C   0  0  0  0  0  0  0  0  0  0  0  0
    0.4546   -1.6500    0.0000 O   0  0  0  0  0  0  0  0  0  0  0  0
    1.1691   -0.4125    0.0000 N   0  0  0  0  0  0  0  0  0  0  0  0
   -2.3860   -0.2212    0.0000 C   0  0  0  0  0  0  0  0  0  0  0  0
   -2.7216   -0.9749    0.0000 C   0  0  0  0  0  0  0  0  0  0  0  0
   -3.5421   -1.0611    0.0000 C   0  0  0  0  0  0  0  0  0  0  0  0
   -4.0270   -0.3937    0.0000 C   0  0  0  0  0  0  0  0  0  0  0  0
   -3.6914    0.3600    0.0000 C   0  0  0  0  0  0  0  0  0  0  0  0
   -2.8709    0.4462    0.0000 C   0  0  0  0  0  0  0  0  0  0  0  0
    1.8836   -0.8250    0.0000 C   0  0  0  0  0  0  0  0  0  0  0  0
    2.5980   -0.4125    0.0000 C   0  0  0  0  0  0  0  0  0  0  0  0
    2.5980    0.4125    0.0000 C   0  0  0  0  0  0  0  0  0  0  0  0
    3.3125    0.8250    0.0000 C   0  0  0  0  0  0  0  0  0  0  0  0
    4.0270    0.4125    0.0000 C   0  0  0  0  0  0  0  0  0  0  0  0
    4.0270   -0.4125    0.0000 C   0  0  0  0  0  0  0  0  0  0  0  0
    3.3125   -0.8250    0.0000 C   0  0  0  0  0  0  0  0  0  0  0  0
    1.8836    0.8250    0.0000 O   0  0  0  0  0  0  0  0  0  0  0  0
    1.8836    1.6500    0.0000 C   0  0  0  0  0  0  0  0  0  0  0  0
  1  2  1  0
  2  3  2  0
  3  4  1  0
  4  5  2  0
  1  5  1  0
  6  7  2  0
  6  8  1  0
  3  6  1  0
  9 10  2  0
 10 11  1  0
 11 12  2  0
 12 13  1  0
 13 14  2  0
  9 14  1  0
  5  9  1  0
 16 17  2  0
 17 18  1  0
 18 19  2  0
 19 20  1  0
 20 21  2  0
 16 21  1  0
 22 23  1  0
 17 22  1  0
 15 16  1  0
  8 15  1  0
M  END
