5311498
     RDKit          2D

 93 98  0  0  1  0  0  0  0  0999 V2000
    9.5407    4.6907    0.0000 Co  0  0  0  0  0 15  0  0  0  0  0  0
    5.7014   -4.1235    0.0000 P   0  0  0  0  0  0  0  0  0  0  0  0
   12.7119    2.7558    0.0000 O   0  0  0  0  0  0  0  0  0  0  0  0
    8.6916    0.3736    0.0000 O   0  0  0  0  0  0  0  0  0  0  0  0
   12.8864    8.9237    0.0000 O   0  0  0  0  0  0  0  0  0  0  0  0
    8.8330   -0.7779    0.0000 O   0  0  0  0  0  0  0  0  0  0  0  0
   11.1780    8.9829    0.0000 O   0  0  0  0  0  0  0  0  0  0  0  0
    6.7087   10.3733    0.0000 O   0  0  0  0  0  0  0  0  0  0  0  0
    3.6618    2.7616    0.0000 O   0  0  0  0  0  0  0  0  0  0  0  0
    6.5104   -3.5357    0.0000 O   0  0  0  0  0  0  0  0  0  0  0  0
    4.8924   -4.7113    0.0000 O   0  0  0  0  0  0  0  0  0  0  0  0
    6.2892   -4.9325    0.0000 O   0  0  0  0  0  0  0  0  0  0  0  0
    5.1136   -3.3145    0.0000 O   0  0  0  0  0  0  0  0  0  0  0  0
    4.6605   -7.2885    0.0000 O   0  0  0  0  0  0  0  0  0  0  0  0
    6.7765   -5.7991    0.0000 O   0  0  0  0  0  0  0  0  0  0  0  0
    2.6064   -6.9101    0.0000 O   0  0  0  0  0  0  0  0  0  0  0  0
   10.4680    5.0651    0.0000 N   0  0  0  0  0  0  0  0  0  0  0  0
    9.0066    3.7324    0.0000 N   0  0  0  0  0  0  0  0  0  0  0  0
    8.9740    6.3979    0.0000 N   0  0  0  0  0  0  0  0  0  0  0  0
   14.3182    3.4039    0.0000 N   0  0  0  0  0  0  0  0  0  0  0  0
    7.5434    5.0651    0.0000 N   0  0  0  0  0  0  0  0  0  0  0  0
   10.2782   -0.3211    0.0000 N   0  0  0  0  0  0  0  0  0  0  0  0
    7.1104   -0.9589    0.0000 N   0  0  0  0  0  0  0  0  0  0  0  0
   14.1015    7.6894    0.0000 N   0  0  0  0  0  0  0  0  0  0  0  0
    7.9648    5.9221    0.0000 N   0  0  0  0  0  0  0  0  0  0  0  0
   10.2897   10.4698    0.0000 N   0  0  0  0  0  0  0  0  0  0  0  0
    8.1037   11.3999    0.0000 N   0  0  0  0  0  0  0  0  0  0  0  0
    2.6131    4.1400    0.0000 N   0  0  0  0  0  0  0  0  0  0  0  0
    6.3241   -7.9271    0.0000 N   0  0  0  0  0  0  0  0  0  0  0  0
    7.7193   -8.7294    0.0000 N   0  0  0  0  0  0  0  0  0  0  0  0
   11.0529    4.3499    0.0000 C   0  0  0  0  0  0  0  0  0  0  0  0
   11.9636    4.6106    0.0000 C   0  0  0  0  0  0  0  0  0  0  0  0
    9.7869    3.1474    0.0000 C   0  0  0  0  0  0  0  0  0  0  0  0
   11.9636    5.5848    0.0000 C   0  0  0  0  0  0  0  0  0  0  0  0
    9.4937    2.2057    0.0000 C   0  0  0  0  0  0  0  0  0  0  0  0
    8.5194    2.2057    0.0000 C   0  0  0  0  0  0  0  0  0  0  0  0
   11.0203    5.8455    0.0000 C   0  0  0  0  0  0  0  0  0  0  0  0
   12.9538    4.4709    0.0000 C   0  0  0  0  0  0  0  0  0  0  0  0
   11.5491    3.4817    0.0000 C   0  0  0  0  0  0  0  0  0  0  0  0
   12.1368    3.6257    0.0000 C   0  0  0  0  0  0  0  0  0  0  0  0
    8.2261    3.1148    0.0000 C   0  0  0  0  0  0  0  0  0  0  0  0
   12.6763    6.2863    0.0000 C   0  0  0  0  0  0  0  0  0  0  0  0
   10.0865    1.4003    0.0000 C   0  0  0  0  0  0  0  0  0  0  0  0
    8.6239    1.2112    0.0000 C   0  0  0  0  0  0  0  0  0  0  0  0
    7.6059    1.7990    0.0000 C   0  0  0  0  0  0  0  0  0  0  0  0
   10.7287    6.7546    0.0000 C   0  0  0  0  0  0  0  0  0  0  0  0
    7.2844    3.4081    0.0000 C   0  0  0  0  0  0  0  0  0  0  0  0
   12.4250    7.2543    0.0000 C   0  0  0  0  0  0  0  0  0  0  0  0
   13.3280    3.5436    0.0000 C   0  0  0  0  0  0  0  0  0  0  0  0
    9.7869    7.0480    0.0000 C   0  0  0  0  0  0  0  0  0  0  0  0
    9.4611    7.9571    0.0000 C   0  0  0  0  0  0  0  0  0  0  0  0
    7.8149    0.6234    0.0000 C   0  0  0  0  0  0  0  0  0  0  0  0
    9.6854    0.4843    0.0000 C   0  0  0  0  0  0  0  0  0  0  0  0
    6.9912    4.3173    0.0000 C   0  0  0  0  0  0  0  0  0  0  0  0
    8.4868    7.9571    0.0000 C   0  0  0  0  0  0  0  0  0  0  0  0
   11.4636    7.4328    0.0000 C   0  0  0  0  0  0  0  0  0  0  0  0
    6.0494    4.5780    0.0000 C   0  0  0  0  0  0  0  0  0  0  0  0
    6.0494    5.5522    0.0000 C   0  0  0  0  0  0  0  0  0  0  0  0
    6.6137    2.6664    0.0000 C   0  0  0  0  0  0  0  0  0  0  0  0
    8.1935    7.0154    0.0000 C   0  0  0  0  0  0  0  0  0  0  0  0
    9.4462    8.9570    0.0000 C   0  0  0  0  0  0  0  0  0  0  0  0
    6.9912    5.8129    0.0000 C   0  0  0  0  0  0  0  0  0  0  0  0
   10.4075    8.2803    0.0000 C   0  0  0  0  0  0  0  0  0  0  0  0
   13.1377    7.9558    0.0000 C   0  0  0  0  0  0  0  0  0  0  0  0
    7.8941    8.7625    0.0000 C   0  0  0  0  0  0  0  0  0  0  0  0
    7.9194   -0.3711    0.0000 C   0  0  0  0  0  0  0  0  0  0  0  0
    7.2519    6.7546    0.0000 C   0  0  0  0  0  0  0  0  0  0  0  0
    5.2536    3.9725    0.0000 C   0  0  0  0  0  0  0  0  0  0  0  0
    8.7528    5.3064    0.0000 C   0  0  0  0  0  0  0  0  0  0  0  0
    5.0497    5.5742    0.0000 C   0  0  0  0  0  0  0  0  0  0  0  0
    5.7614    6.5098    0.0000 C   0  0  0  0  0  0  0  0  0  0  0  0
    8.2952    9.6785    0.0000 C   0  0  0  0  0  0  0  0  0  0  0  0
   10.3046    9.4699    0.0000 C   0  0  0  0  0  0  0  0  0  0  0  0
    4.3313    4.3590    0.0000 C   0  0  0  0  0  0  0  0  0  0  0  0
    7.2149   -1.9534    0.0000 C   0  0  0  0  0  0  0  0  0  0  0  0
    7.7025   10.4839    0.0000 C   0  0  0  0  0  0  0  0  0  0  0  0
    3.5354    3.7535    0.0000 C   0  0  0  0  0  0  0  0  0  0  0  0
    6.4059   -2.5412    0.0000 C   0  0  0  0  0  0  0  0  0  0  0  0
    5.4924   -2.1345    0.0000 C   0  0  0  0  0  0  0  0  0  0  0  0
    4.9969   -5.7058    0.0000 C   0  0  0  0  0  0  0  0  0  0  0  0
    5.8629   -6.2058    0.0000 C   0  0  0  0  0  0  0  0  0  0  0  0
    4.2537   -6.3749    0.0000 C   0  0  0  0  0  0  0  0  0  0  0  0
    5.6550   -7.1840    0.0000 C   0  0  0  0  0  0  0  0  0  0  0  0
    3.2756   -6.1670    0.0000 C   0  0  0  0  0  0  0  0  0  0  0  0
    6.1166   -8.8993    0.0000 C   0  0  0  0  0  0  0  0  0  0  0  0
    7.3126   -7.8224    0.0000 C   0  0  0  0  0  0  0  0  0  0  0  0
    6.9835   -9.3978    0.0000 C   0  0  0  0  0  0  0  0  0  0  0  0
    5.2514   -9.4008    0.0000 C   0  0  0  0  0  0  0  0  0  0  0  0
    6.9852  -10.3978    0.0000 C   0  0  0  0  0  0  0  0  0  0  0  0
    5.2531  -10.4008    0.0000 C   0  0  0  0  0  0  0  0  0  0  0  0
    6.1200  -10.8993    0.0000 C   0  0  0  0  0  0  0  0  0  0  0  0
    4.3880  -10.9023    0.0000 C   0  0  0  0  0  0  0  0  0  0  0  0
    6.1217  -11.8993    0.0000 C   0  0  0  0  0  0  0  0  0  0  0  0
  2 10  1  0
  2 11  1  0
  2 12  1  0
  2 13  2  0
  3 49  2  0
  4 53  2  0
  5 64  2  0
  6 66  2  0
  7 73  2  0
  8 76  2  0
  9 77  2  0
 78 10  1  0
 80 11  1  1
 14 82  1  0
 14 83  1  0
 81 15  1  1
 16 84  1  0
 17 31  1  0
 17 37  1  0
 33 18  1  1
 18 41  2  0
 19 50  2  0
 19 60  1  0
 20 49  1  0
 21 54  1  0
 21 62  2  0
 22 53  1  0
 23 66  1  0
 23 75  1  0
 24 64  1  0
 25 69  3  0
 26 73  1  0
 27 76  1  0
 28 77  1  0
 83 29  1  1
 29 85  1  0
 29 86  1  0
 30 86  2  0
 30 87  1  0
 31 32  1  0
 31 33  1  0
 31 39  1  1
 32 34  1  0
 32 38  1  0
 32 40  1  1
 33 35  1  0
 34 37  1  0
 34 42  1  1
 35 36  1  0
 35 43  1  6
 36 41  1  0
 36 44  1  0
 36 45  1  6
 37 46  2  0
 38 49  1  0
 41 47  1  0
 42 48  1  0
 43 53  1  0
 44 52  1  0
 46 50  1  0
 46 56  1  0
 47 54  2  0
 47 59  1  0
 48 64  1  0
 50 51  1  0
 51 55  1  0
 51 61  1  0
 51 63  1  1
 52 66  1  0
 54 57  1  0
 55 60  1  0
 55 65  1  1
 57 58  1  0
 57 68  1  1
 58 62  1  0
 58 70  1  0
 58 71  1  0
 60 67  2  0
 61 73  1  0
 62 67  1  0
 65 72  1  0
 68 74  1  0
 72 76  1  0
 74 77  1  0
 75 78  1  0
 78 79  1  6
 80 81  1  0
 80 82  1  0
 81 83  1  0
 82 84  1  6
 85 87  2  0
 85 88  1  0
 87 89  1  0
 88 90  2  0
 89 91  2  0
 90 91  1  0
 90 92  1  0
 91 93  1  0
M  CHG  4   1   3  12  -1  17  -1  69  -1
M  END
