13114-90-4.mol
     RDKit          2D

 93100  0  0  0  0  0  0  0  0999 V2000
    1.6138   -2.1638    0.0000 C   0  0  0  0  0  0  0  0  0  0  0  0
    0.8467   -0.1954    0.0000 C   0  0  0  0  0  0  0  0  0  0  0  0
    3.0322    0.8757    0.0000 C   0  0  0  0  0  0  0  0  0  0  0  0
   -4.6822    0.6586    0.0000 N   0  0  0  0  0  0  0  0  0  0  0  0
    1.6138   -1.3678    0.0000 N   0  0  0  0  0  0  0  0  0  0  0  0
    0.8467   -1.0928    0.0000 C   0  0  0  0  0  0  0  0  0  0  0  0
    2.3520   -2.5257    0.0000 C   0  0  0  0  0  0  0  0  0  0  0  0
   -5.1888    0.0796    0.0000 C   0  0  0  0  0  0  0  0  0  0  0  0
    3.1046   -2.1638    0.0000 C   0  0  0  0  0  0  0  0  0  0  0  0
    1.6138    0.0507    0.0000 N   0  0  0  0  0  0  0  0  0  0  0  0
    1.6138    0.8757    0.0000 C   0  0  0  0  0  0  0  0  0  0  0  0
    3.2783    0.1086    0.0000 N   0  0  0  0  0  0  0  0  0  0  0  0
    3.3072   -1.3388    0.0000 N   0  0  0  0  0  0  0  0  0  0  0  0
    0.8178   -2.4099    0.0000 C   0  0  0  0  0  0  0  0  0  0  0  0
    4.1612   -1.3388    0.0000 C   0  0  0  0  0  0  0  0  0  0  0  0
    0.3691    0.4559    0.0000 C   0  0  0  0  0  0  0  0  0  0  0  0
    2.3086    1.2086    0.0000 C   0  0  0  0  0  0  0  0  0  0  0  0
    3.6980    1.3967    0.0000 C   0  0  0  0  0  0  0  0  0  0  0  0
   -4.9572   -0.7309    0.0000 C   0  0  0  0  0  0  0  0  0  0  0  0
    4.1757    0.1086    0.0000 C   0  0  0  0  0  0  0  0  0  0  0  0
   -5.6086   -1.1796    0.0000 C   0  0  0  0  0  0  0  0  0  0  0  0
    0.3691   -1.7730    0.0000 C   0  0  0  0  0  0  0  0  0  0  0  0
   -6.0138    0.0796    0.0000 O   0  0  0  0  0  0  0  0  0  0  0  0
   -4.8993   -2.4099    0.0000 P   0  0  0  0  0  0  0  0  0  0  0  0
   -4.8704    1.3967    0.0000 C   0  0  0  0  0  0  0  0  0  0  0  0
    4.5665   -0.6296    0.0000 C   0  0  0  0  0  0  0  0  0  0  0  0
    0.8467    1.1217    0.0000 C   0  0  0  0  0  0  0  0  0  0  0  0
   -3.9007    0.5717    0.0000 C   0  0  0  0  0  0  0  0  0  0  0  0
    4.4507   -2.1204    0.0000 C   0  0  0  0  0  0  0  0  0  0  0  0
    3.7993   -2.6270    0.0000 C   0  0  0  0  0  0  0  0  0  0  0  0
   -3.5822    1.2809    0.0000 N   0  0  0  0  0  0  0  0  0  0  0  0
    4.3493    0.9191    0.0000 C   0  0  0  0  0  0  0  0  0  0  0  0
   -6.2599   -0.7164    0.0000 C   0  0  0  0  0  0  0  0  0  0  0  0
   -4.1612    1.8164    0.0000 C   0  0  0  0  0  0  0  0  0  0  0  0
   -5.6086   -2.0046    0.0000 O   0  0  0  0  0  0  0  0  0  0  0  0
   -5.5507    1.8164    0.0000 C   0  0  0  0  0  0  0  0  0  0  0  0
    3.2349   -0.5862    0.0000 C   0  0  0  0  0  0  0  0  0  0  0  0
    4.0599   -0.5862    0.0000 N   0  0  0  0  0  0  0  0  0  0  0  0
    0.1375   -2.8151    0.0000 C   0  0  0  0  0  0  0  0  0  0  0  0
    2.4388   -0.5862    0.0000 Co  0  0  0  0  0  2  0  0  0  0  0  0
   -0.3546    0.8757    0.0000 C   0  0  0  0  0  0  0  0  0  0  0  0
    4.0888    2.1204    0.0000 C   0  0  0  0  0  0  0  0  0  0  0  0
   -4.1612    2.6125    0.0000 C   0  0  0  0  0  0  0  0  0  0  0  0
   -5.5507    2.6125    0.0000 C   0  0  0  0  0  0  0  0  0  0  0  0
    0.5283    1.8743    0.0000 C   0  0  0  0  0  0  0  0  0  0  0  0
   -0.4559   -1.7730    0.0000 C   0  0  0  0  0  0  0  0  0  0  0  0
    3.7993   -3.4375    0.0000 C   0  0  0  0  0  0  0  0  0  0  0  0
   -4.8704    3.0322    0.0000 C   0  0  0  0  0  0  0  0  0  0  0  0
    5.1309    1.1217    0.0000 C   0  0  0  0  0  0  0  0  0  0  0  0
    4.9862    2.1204    0.0000 C   0  0  0  0  0  0  0  0  0  0  0  0
   -1.0928    0.4559    0.0000 C   0  0  0  0  0  0  0  0  0  0  0  0
   -5.3480   -3.1046    0.0000 O   0  0  0  0  0  0  0  0  0  0  0  0
   -0.8757   -1.0638    0.0000 C   0  0  0  0  0  0  0  0  0  0  0  0
   -4.1757   -2.8441    0.0000 O   0  0  0  0  0  0  0  0  0  0  0  0
   -1.3099   -2.8441    0.0000 C   0  0  0  0  0  0  0  0  0  0  0  0
   -4.5086   -1.6862    0.0000 O   0  0  0  0  0  0  0  0  0  0  0  0
    6.5349    0.8033    0.0000 C   0  0  0  0  0  0  0  0  0  0  0  0
    5.2033   -3.4230    0.0000 C   0  0  0  0  0  0  0  0  0  0  0  0
   -0.6151    2.7572    0.0000 C   0  0  0  0  0  0  0  0  0  0  0  0
   -2.0336   -2.4099    0.0000 N   0  0  0  0  0  0  0  0  0  0  0  0
    5.3915    2.8296    0.0000 O   0  0  0  0  0  0  0  0  0  0  0  0
   -0.4704   -0.3546    0.0000 O   0  0  0  0  0  0  0  0  0  0  0  0
   -1.0928   -0.3691    0.0000 O   0  0  0  0  0  0  0  0  0  0  0  0
   -1.3099   -3.6691    0.0000 O   0  0  0  0  0  0  0  0  0  0  0  0
   -4.1901   -1.0493    0.0000 O   0  0  0  0  0  0  0  0  0  0  0  0
    5.2033   -2.6125    0.0000 O   0  0  0  0  0  0  0  0  0  0  0  0
    6.7230    1.5993    0.0000 O   0  0  0  0  0  0  0  0  0  0  0  0
   -0.1230    3.4230    0.0000 O   0  0  0  0  0  0  0  0  0  0  0  0
   -0.5862   -2.4099    0.0000 C   0  0  0  0  0  0  0  0  0  0  0  0
   -0.2967    1.9901    0.0000 C   0  0  0  0  0  0  0  0  0  0  0  0
    4.5086   -3.8428    0.0000 C   0  0  0  0  0  0  0  0  0  0  0  0
    5.7533    0.5572    0.0000 C   0  0  0  0  0  0  0  0  0  0  0  0
    2.3520   -3.3507    0.0000 C   0  0  0  0  0  0  0  0  0  0  0  0
    0.1954   -0.7164    0.0000 C   0  0  0  0  0  0  0  0  0  0  0  0
   -3.4665   -2.4099    0.0000 C   0  0  0  0  0  0  0  0  0  0  0  0
    0.8178   -3.2349    0.0000 C   0  0  0  0  0  0  0  0  0  0  0  0
    2.3086    2.0336    0.0000 C   0  0  0  0  0  0  0  0  0  0  0  0
   -0.3691    0.1375    0.0000 C   0  0  0  0  0  0  0  0  0  0  0  0
    3.3072    2.1204    0.0000 C   0  0  0  0  0  0  0  0  0  0  0  0
    5.4349    1.4401    0.0000 N   0  0  0  0  0  0  0  0  0  0  0  0
   -1.7007   -1.0638    0.0000 N   0  0  0  0  0  0  0  0  0  0  0  0
   -1.7875    0.8901    0.0000 N   0  0  0  0  0  0  0  0  0  0  0  0
   -1.4401    2.8586    0.0000 N   0  0  0  0  0  0  0  0  0  0  0  0
    7.1572    0.2388    0.0000 N   0  0  0  0  0  0  0  0  0  0  0  0
    5.8980   -3.8283    0.0000 N   0  0  0  0  0  0  0  0  0  0  0  0
   -2.7428   -2.8441    0.0000 C   0  0  0  0  0  0  0  0  0  0  0  0
   -7.0270   -1.0059    0.0000 C   0  0  0  0  0  0  0  0  0  0  0  0
    5.2901   -2.1204    0.0000 C   0  0  0  0  0  0  0  0  0  0  0  0
    4.6099   -2.9164    0.0000 C   0  0  0  0  0  0  0  0  0  0  0  0
   -7.1572   -1.8309    0.0000 O   0  0  0  0  0  0  0  0  0  0  0  0
   -6.3033    3.0322    0.0000 C   0  0  0  0  0  0  0  0  0  0  0  0
   -4.8704    3.8428    0.0000 C   0  0  0  0  0  0  0  0  0  0  0  0
   -3.4665   -1.5849    0.0000 C   0  0  0  0  0  0  0  0  0  0  0  0
  5  1  1  0
  7  1  2  0
 14  1  1  0
  2  6  1  0
 10  2  1  0
 16  2  1  0
  2 74  1  6
  3 17  2  0
  3 12  1  0
  3 18  1  0
  8  4  1  6
 25  4  1  0
 28  4  1  0
  6  5  1  6
 40  5  1  0
  6 22  1  0
  9  7  1  0
 73  7  1  0
  8 19  1  0
  8 23  1  0
 13  9  2  0
 30  9  1  0
 11 10  2  0
 17 11  1  0
 27 11  1  0
 12 20  2  0
 15 13  1  0
 22 14  1  0
 39 14  1  0
 14 76  1  1
 26 15  2  0
 29 15  1  0
 27 16  1  0
 16 41  1  0
 16 78  1  6
 77 17  1  0
 18 32  1  0
 18 42  1  0
 18 79  1  6
 19 21  1  0
 19 65  1  6
 20 26  1  0
 32 20  1  0
 21 35  1  6
 33 21  1  0
 22 46  1  1
 23 33  1  0
 24 54  1  0
 35 24  1  0
 52 24  1  0
 56 24  2  0
 34 25  2  0
 36 25  1  0
 27 45  1  6
 31 28  2  0
 29 30  1  0
 88 29  1  0
 89 29  1  0
 30 47  1  6
 31 34  1  0
 32 49  1  6
 33 87  1  1
 43 34  1  0
 44 36  2  0
 37 40  1  0
 38 37  3  0
 69 39  1  0
 51 41  1  0
 50 42  1  0
 43 48  2  0
 48 44  1  0
 91 44  1  0
 70 45  1  0
 53 46  1  0
 71 47  1  0
 92 48  1  0
 72 49  1  0
 61 50  2  0
 80 50  1  0
 63 51  2  0
 82 51  1  0
 62 53  2  0
 81 53  1  0
 54 75  1  0
 55 69  1  0
 60 55  1  0
 64 55  2  0
 57 72  1  0
 67 57  2  0
 84 57  1  0
 58 71  1  0
 66 58  2  0
 85 58  1  0
 59 70  1  0
 68 59  2  0
 83 59  1  0
 86 60  1  0
 75 86  1  0
 75 93  1  6
 90 87  1  0
M  CHG  1  52  -1
M  ISO  1  40  57
M  END
