 
     RDKit          2D

 91 94  0  1  1  0  0  0  0  0999 V2000
   36.4000  -16.1700    0.0000 C   0  0  0  0  0  0  0  0  0  0  0  0
   36.4000  -17.5700    0.0000 C   0  0  0  0  0  0  0  0  0  0  0  0
   37.5900  -18.2700    0.0000 C   0  0  0  0  0  0  0  0  0  0  0  0
   38.8500  -17.5700    0.0000 C   0  0  0  0  0  0  0  0  0  0  0  0
   38.8500  -16.1700    0.0000 C   0  0  0  0  0  0  0  0  0  0  0  0
   37.5900  -15.4700    0.0000 O   0  0  0  0  0  0  0  0  0  0  0  0
   37.5900  -19.6700    0.0000 O   0  0  0  0  0  0  0  0  0  0  0  0
   35.2100  -15.4700    0.0000 C   0  0  0  0  0  0  0  0  0  0  0  0
   34.0200  -16.1700    0.0000 O   0  0  0  0  0  0  0  0  0  0  0  0
   40.3900  -15.3300    0.0000 O   0  0  0  0  0  0  0  0  0  0  0  0
   35.2100  -14.0700    0.0000 O   0  0  0  0  0  0  0  0  0  0  0  0
   42.0000  -13.0200    0.0000 C   0  0  0  0  0  0  0  0  0  0  0  0
   42.0000  -14.4200    0.0000 C   0  0  0  0  0  0  0  0  0  0  0  0
   43.1900  -15.1200    0.0000 C   0  0  0  0  0  0  0  0  0  0  0  0
   44.4500  -14.4200    0.0000 C   0  0  0  0  0  0  0  0  0  0  0  0
   44.4500  -13.0200    0.0000 C   0  0  0  0  0  0  0  0  0  0  0  0
   43.1900  -12.3200    0.0000 O   0  0  0  0  0  0  0  0  0  0  0  0
   43.1900  -16.5200    0.0000 O   0  0  0  0  0  0  0  0  0  0  0  0
   40.8100  -12.3200    0.0000 C   0  0  0  0  0  0  0  0  0  0  0  0
   48.4400  -11.6900    0.0000 *   0  0  0  0  0  0  0  0  0  0  0  0
   45.6400  -15.1200    0.0000 N   0  0  0  0  0  0  0  0  0  0  0  0
   35.2100  -18.2700    0.0000 O   0  0  0  0  0  0  0  0  0  0  0  0
   30.7300  -18.2700    0.0000 *   0  0  0  0  0  0  0  0  0  0  0  0
   39.6200  -13.0200    0.0000 O   0  0  0  0  0  0  0  0  0  0  0  0
   37.6600  -13.0200    0.0000 R#  0  0  0  0  0  0  0  0  0  0  0  0
   40.0400  -18.2700    0.0000 O   0  0  0  0  0  0  0  0  0  0  0  0
   45.6400  -16.6600    0.0000 R#  0  0  0  0  0  0  0  0  0  0  0  0
   40.0400  -19.8100    0.0000 R#  0  0  0  0  0  0  0  0  0  0  0  0
   43.1900  -18.0600    0.0000 R#  0  0  0  0  0  0  0  0  0  0  0  0
   14.5872  -20.1683    0.0000 O   0  0  0  0  0  0  0  0  0  0  0  0
   16.4296  -19.1183    0.0000 C   0  0  0  0  0  0  0  0  0  0  0  0
   17.6536  -19.8251    0.0000 C   0  0  0  0  0  0  0  0  0  0  0  0
   18.8661  -19.1253    0.0000 C   0  0  0  0  0  0  0  0  0  0  0  0
   18.8663  -17.7253    0.0000 C   0  0  0  0  0  0  0  0  0  0  0  0
   17.6423  -17.0184    0.0000 O   0  0  0  0  0  0  0  0  0  0  0  0
   16.4298  -17.7183    0.0000 C   0  0  0  0  0  0  0  0  0  0  0  0
   17.6533  -21.2099    0.0000 O   0  0  0  0  0  0  0  0  0  0  0  0
   20.1107  -17.0070    0.0000 O   0  0  0  0  0  0  0  0  0  0  0  0
   20.1107  -15.6070    0.0000 C   0  0  0  0  0  0  0  0  0  0  0  0
   20.0967  -19.8366    0.0000 O   0  0  0  0  0  0  0  0  0  0  0  0
   21.3062  -14.9166    0.0000 C   0  0  0  0  0  0  0  0  0  0  0  0
   21.3061  -13.5166    0.0000 C   0  0  0  0  0  0  0  0  0  0  0  0
   20.0936  -12.8167    0.0000 O   0  0  0  0  0  0  0  0  0  0  0  0
   18.8981  -13.5071    0.0000 C   0  0  0  0  0  0  0  0  0  0  0  0
   18.8982  -14.9071    0.0000 C   0  0  0  0  0  0  0  0  0  0  0  0
   17.6859  -15.6071    0.0000 O   0  0  0  0  0  0  0  0  0  0  0  0
   23.4816  -11.7060    0.0000 *   0  0  0  0  0  0  0  0  0  0  0  0
   22.4961  -15.6036    0.0000 N   0  0  0  0  0  0  0  0  0  0  0  0
   23.6824  -14.9100    0.0000 C   0  0  0  0  0  0  0  0  0  0  0  0
   24.8949  -15.6100    0.0000 C   0  0  0  0  0  0  0  0  0  0  0  0
   23.6786  -13.5101    0.0000 O   0  0  0  0  0  0  0  0  0  0  0  0
   17.6883  -12.8088    0.0000 C   0  0  0  0  0  0  0  0  0  0  0  0
   17.7583  -11.1987    0.0000 O   0  0  0  0  0  0  0  0  0  0  0  0
   19.5148   -9.8824    0.0000 R   0  0  0  0  0  0  0  0  0  0  0  0
   16.0029  -14.2182    0.0000 R   0  0  0  0  0  0  0  0  0  0  0  0
   21.8058  -18.9237    0.0000 R   0  0  0  0  0  0  0  0  0  0  0  0
   12.3749  -19.6574    0.0000 *   0  0  0  0  0  0  0  0  0  0  0  0
   15.2292  -17.0247    0.0000 C   0  0  0  0  0  0  0  0  0  0  0  0
   14.0461  -17.7075    0.0000 O   0  0  0  0  0  0  0  0  0  0  0  0
   15.2291  -15.6103    0.0000 O   0  0  0  0  0  0  0  0  0  0  0  0
   22.4000  -15.8900    0.0000 C   0  0  0  0  0  0  0  0  0  0  0  0
   23.5900  -15.1900    0.0000 C   0  0  0  0  0  0  0  0  0  0  0  0
   23.5900  -13.7900    0.0000 C   0  0  0  0  0  0  0  0  0  0  0  0
   22.4000  -13.0900    0.0000 O   0  0  0  0  0  0  0  0  0  0  0  0
   21.2100  -13.7900    0.0000 C   0  0  0  0  0  0  0  0  0  0  0  0
   21.2100  -15.1900    0.0000 C   0  0  0  0  0  0  0  0  0  0  0  0
   18.1300  -18.3400    0.0000 C   0  0  0  0  0  0  0  0  0  0  0  0
   18.1300  -19.7400    0.0000 C   0  0  0  0  0  0  0  0  0  0  0  0
   19.3200  -20.4400    0.0000 C   0  0  0  0  0  0  0  0  0  0  0  0
   20.5800  -19.7400    0.0000 C   0  0  0  0  0  0  0  0  0  0  0  0
   20.5800  -18.3400    0.0000 C   0  0  0  0  0  0  0  0  0  0  0  0
   19.3200  -17.6400    0.0000 O   0  0  0  0  0  0  0  0  0  0  0  0
   15.8200  -20.3000    0.0000 O   0  0  0  0  0  0  0  0  0  0  0  0
   21.7700  -20.4400    0.0000 O   0  0  0  0  0  0  0  0  0  0  0  0
   19.3200  -21.8400    0.0000 O   0  0  0  0  0  0  0  0  0  0  0  0
   16.9400  -17.6400    0.0000 C   0  0  0  0  0  0  0  0  0  0  0  0
   22.4000  -17.7100    0.0000 O   0  0  0  0  0  0  0  0  0  0  0  0
   25.9700  -12.3900    0.0000 *   0  0  0  0  0  0  0  0  0  0  0  0
   20.0200  -13.0900    0.0000 C   0  0  0  0  0  0  0  0  0  0  0  0
   20.0200  -15.8900    0.0000 O   0  0  0  0  0  0  0  0  0  0  0  0
   24.7800  -15.8900    0.0000 N   0  0  0  0  0  0  0  0  0  0  0  0
   15.7500  -18.3400    0.0000 O   0  0  0  0  0  0  0  0  0  0  0  0
   16.9400  -16.2400    0.0000 O   0  0  0  0  0  0  0  0  0  0  0  0
   24.7800  -17.2900    0.0000 C   0  0  0  0  0  0  0  0  0  0  0  0
   25.9700  -17.9900    0.0000 C   0  0  0  0  0  0  0  0  0  0  0  0
   23.5900  -17.9900    0.0000 O   0  0  0  0  0  0  0  0  0  0  0  0
   20.0200  -11.6900    0.0000 O   0  0  0  0  0  0  0  0  0  0  0  0
   21.6524  -10.6400    0.0000 R   0  0  0  0  0  0  0  0  0  0  0  0
   18.5219  -14.9199    0.0000 R   0  0  0  0  0  0  0  0  0  0  0  0
   23.4081  -19.4699    0.0000 R   0  0  0  0  0  0  0  0  0  0  0  0
   13.4541  -18.5166    0.0000 *   0  0  0  0  0  0  0  0  0  0  0  0
  1  2  1  0
  2  3  1  0
  3  4  1  0
  4  5  1  0
  5  6  1  0
  1  6  1  0
  3  7  1  1
  1  8  1  0
  8  9  1  0
  5 10  1  1
  8 11  2  0
 12 13  1  0
 13 14  1  0
 14 15  1  0
 15 16  1  0
 16 17  1  0
 12 17  1  0
 14 18  1  1
 12 19  1  1
 13 10  1  6
 16 20  1  6
 15 21  1  6
  2 22  1  6
 22 23  1  0
 19 24  1  0
 24 25  1  0
  4 26  1  6
 21 27  1  0
 26 28  1  0
 18 29  1  0
 31 30  1  6
 31 32  1  0
 32 33  1  0
 33 34  1  0
 34 35  1  0
 35 36  1  0
 31 36  1  0
 32 37  1  1
 34 38  1  1
 39 38  1  1
 33 40  1  6
 39 41  1  0
 41 42  1  0
 42 43  1  0
 43 44  1  0
 44 45  1  0
 39 45  1  0
 45 46  1  1
 42 47  1  1
 41 48  1  6
 48 49  1  0
 49 50  1  0
 49 51  2  0
 44 52  1  1
 52 53  1  0
 53 54  1  0
 46 55  1  0
 40 56  1  0
 30 57  1  0
 58 59  1  0
 58 60  2  0
 36 58  1  6
 61 62  1  0
 62 63  1  0
 63 64  1  0
 64 65  1  0
 65 66  1  0
 61 66  1  0
 67 68  1  0
 68 69  1  0
 69 70  1  0
 70 71  1  0
 71 72  1  0
 67 72  1  0
 68 73  1  6
 70 74  1  6
 69 75  1  1
 67 76  1  1
 71 77  1  1
 61 77  1  1
 63 78  1  1
 65 79  1  1
 66 80  1  1
 62 81  1  6
 76 82  1  0
 76 83  2  0
 81 84  1  0
 84 85  1  0
 84 86  2  0
 79 87  1  0
 87 88  1  0
 80 89  1  0
 74 90  1  0
 73 91  1  0
M  RGP  4  25   1  27   2  28   1  29   1
V   20 *
V   23 *
V   25 *
V   27 *
V   28 *
V   29 *
V   47 *
V   54 *
V   55 *
V   56 *
V   57 *
V   78 *
V   88 *
V   89 *
V   90 *
V   91 *
M  STY  1   1 SRU
M  SLB  1   1   1
M  SCN  1   1 HT 
M  SAL   1 15   1   2   3   4   5   6   7   8   9  10  11  12  13  14  15
M  SAL   1 12  16  17  18  19  21  22  24  25  26  27  28  29
M  SDI   1  4   32.3400  -20.7200   32.3400  -10.9900
M  SDI   1  4   47.1800  -10.9900   47.1800  -20.7200
M  SMT   1 n
M  END
