 
     RDKit          2D

 30 33  0  0  1  0  0  0  0  0999 V2000
   33.2856  -19.2724    0.0000 C   0  0  0  0  0  0  0  0  0  0  0  0
   33.2913  -17.9380    0.0000 C   0  0  0  0  0  0  0  0  0  0  0  0
   34.4453  -19.9427    0.0000 C   0  0  0  0  0  0  0  0  0  0  0  0
   34.2413  -18.3226    0.0000 C   0  0  0  0  0  0  0  0  0  0  0  0
   32.1259  -19.9368    0.0000 C   0  0  0  0  0  0  0  0  0  0  0  0
   34.4570  -17.2736    0.0000 C   0  0  0  0  0  0  0  0  0  0  0  0
   32.1492  -17.2619    0.0000 C   0  0  0  0  0  0  0  0  0  0  0  0
   35.6051  -19.2841    0.0000 C   0  0  0  0  0  0  0  0  0  0  0  0
   34.4453  -21.2772    0.0000 C   0  0  0  0  0  0  0  0  0  0  0  0
   36.7415  -18.3167    0.0000 C   0  0  0  0  0  0  0  0  0  0  0  0
   32.1259  -21.2772    0.0000 C   0  0  0  0  0  0  0  0  0  0  0  0
   35.6108  -17.9496    0.0000 C   0  0  0  0  0  0  0  0  0  0  0  0
   34.4687  -15.9449    0.0000 C   0  0  0  0  0  0  0  0  0  0  0  0
   32.1609  -15.9273    0.0000 C   0  0  0  0  0  0  0  0  0  0  0  0
   36.7590  -19.9601    0.0000 N   0  0  0  0  0  0  0  0  0  0  0  0
   33.2856  -21.9534    0.0000 C   0  0  0  0  0  0  0  0  0  0  0  0
   33.3206  -15.2688    0.0000 C   0  0  0  0  0  0  0  0  0  0  0  0
   31.0069  -15.2455    0.0000 O   0  0  0  0  0  0  0  0  0  0  0  0
   38.2276  -19.9368    0.0000 C   0  0  0  0  0  0  0  0  0  0  0  0
   29.8412  -15.9040    0.0000 C   0  0  0  0  0  0  0  0  0  0  0  0
   -1.0717   -0.2062    0.0000 C   0  0  0  0  0  0  0  0  0  0  0  0
   -1.0717   -1.0313    0.0000 C   0  0  0  0  0  0  0  0  0  0  0  0
   -0.3572   -1.4438    0.0000 C   0  0  0  0  0  0  0  0  0  0  0  0
    0.3572   -1.0313    0.0000 C   0  0  0  0  0  0  0  0  0  0  0  0
    0.3572   -0.2062    0.0000 C   0  0  0  0  0  0  0  0  0  0  0  0
   -0.3572    0.2062    0.0000 C   0  0  0  0  0  0  0  0  0  0  0  0
   -0.3572    1.0313    0.0000 C   0  0  0  0  0  0  0  0  0  0  0  0
   -1.0717    1.4438    0.0000 *   0  0  0  0  0  0  0  0  0  0  0  0
    0.3572    1.4438    0.0000 C   0  0  0  0  0  0  0  0  0  0  0  0
    1.0717    1.0313    0.0000 *   0  0  0  0  0  0  0  0  0  0  0  0
  1  2  1  0
  1  3  1  0
  1  4  1  6
  1  5  1  0
  2  6  2  0
  2  7  1  0
  3  8  1  0
  3  9  1  1
  4 10  1  0
  5 11  1  0
  6 12  1  0
  6 13  1  0
  7 14  2  0
  8 15  1  0
  9 16  1  0
 13 17  2  0
 14 18  1  0
 15 19  1  0
 18 20  1  0
  8 12  1  6
 10 15  1  0
 11 16  1  0
 14 17  1  0
 21 22  2  0
 22 23  1  0
 23 24  2  0
 24 25  1  0
 25 26  2  0
 26 21  1  0
 26 27  1  0
 27 28  1  0
 27 29  1  0
 29 30  1  0
V   28 *
V   30 *
M  END
