 
 
 
 10 10  0  0  1  0  0  0  0  0999 V2000
   18.0875  -15.2739    0.0000 C   0  0  0  0  0  0  0  0  0  0  0  0
   16.8262  -14.5732    0.0000 C   0  0  0  0  0  0  0  0  0  0  0  0
   18.0875  -16.6754    0.0000 C   0  0  0  0  0  0  0  0  0  0  0  0
   19.2786  -14.5732    0.0000 C   0  0  0  0  0  0  0  0  0  0  0  0
   15.6350  -15.2739    0.0000 C   0  0  0  0  0  0  0  0  0  0  0  0
   16.8262  -17.3761    0.0000 C   0  0  0  0  0  0  0  0  0  0  0  0
   20.4698  -15.2739    0.0000 C   0  0  2  0  0  0  0  0  0  0  0  0
   15.6350  -16.6754    0.0000 C   0  0  0  0  0  0  0  0  0  0  0  0
   21.6609  -14.5732    0.0000 N   0  0  0  0  0  0  0  0  0  0  0  0
   20.4695  -16.6597    0.0000 C   0  0  0  0  0  0  0  0  0  0  0  0
  1  2  2  0     0  0
  1  3  1  0     0  0
  1  4  1  0     0  0
  2  5  1  0     0  0
  3  6  2  0     0  0
  4  7  1  0     0  0
  5  8  2  0     0  0
  7  9  1  0     0  0
  6  8  1  0     0  0
  7 10  1  1     0  0
M  END
