 
     RDKit          2D

 50 52  0  0  0  0  0  0  0  0999 V2000
   28.2452  -17.0804    0.0000 Cl  0  0  0  0  0  0  0  0  0  0  0  0
   21.1400  -14.4900    0.0000 C   0  0  0  0  0  0  0  0  0  0  0  0
   21.1400  -15.8900    0.0000 C   0  0  0  0  0  0  0  0  0  0  0  0
   22.3524  -16.5900    0.0000 C   0  0  0  0  0  0  0  0  0  0  0  0
   23.5649  -15.8900    0.0000 C   0  0  0  0  0  0  0  0  0  0  0  0
   23.5649  -14.4900    0.0000 C   0  0  0  0  0  0  0  0  0  0  0  0
   22.3524  -13.7900    0.0000 C   0  0  0  0  0  0  0  0  0  0  0  0
   19.9276  -16.5900    0.0000 C   0  0  0  0  0  0  0  0  0  0  0  0
   18.7321  -15.8996    0.0000 C   0  0  0  0  0  0  0  0  0  0  0  0
   17.5196  -16.5995    0.0000 C   0  0  0  0  0  0  0  0  0  0  0  0
   17.5194  -17.9995    0.0000 N   0  0  0  0  0  0  0  0  0  0  0  0
   18.7149  -18.6899    0.0000 C   0  0  0  0  0  0  0  0  0  0  0  0
   19.9274  -17.9900    0.0000 C   0  0  0  0  0  0  0  0  0  0  0  0
   16.2966  -18.7054    0.0000 C   0  0  0  0  0  0  0  0  0  0  0  0
   20.6276  -17.8024    0.0000 C   0  0  0  0  0  0  0  0  0  0  0  0
   22.0498  -17.8028    0.0000 O   0  0  0  0  0  0  0  0  0  0  0  0
   19.9429  -18.9883    0.0000 O   0  0  0  0  0  0  0  0  0  0  0  0
   22.7397  -18.9983    0.0000 C   0  0  0  0  0  0  0  0  0  0  0  0
   24.1497  -18.9988    0.0000 C   0  0  0  0  0  0  0  0  0  0  0  0
   21.1500   -8.9104    0.0000 O   0  0  0  0  0  0  0  0  0  0  0  0
   22.3114   -8.2135    0.0000 C   0  0  0  0  0  0  0  0  0  0  0  0
   23.5193   -8.9104    0.0000 C   0  0  0  0  0  0  0  0  0  0  0  0
   24.7271   -8.2135    0.0000 C   0  0  0  0  0  0  0  0  0  0  0  0
   25.9350   -8.9104    0.0000 C   0  0  0  0  0  0  0  0  0  0  0  0
   27.1429   -8.2135    0.0000 O   0  0  0  0  0  0  0  0  0  0  0  0
   22.3114   -6.8198    0.0000 O   0  0  0  0  0  0  0  0  0  0  0  0
   23.5193  -10.3505    0.0000 O   0  0  0  0  0  0  0  0  0  0  0  0
   24.7271   -6.8198    0.0000 O   0  0  0  0  0  0  0  0  0  0  0  0
   25.9350  -10.3505    0.0000 O   0  0  0  0  0  0  0  0  0  0  0  0
   13.4694   -9.3694    0.0000 C   0  0  0  0  0  0  0  0  0  0  0  0
   13.4694   -8.0454    0.0000 C   0  0  0  0  0  0  0  0  0  0  0  0
   14.6540  -10.0661    0.0000 C   0  0  0  0  0  0  0  0  0  0  0  0
   12.3545   -9.9965    0.0000 C   0  0  0  0  0  0  0  0  0  0  0  0
   14.6540   -8.7423    0.0000 C   0  0  0  0  0  0  0  0  0  0  0  0
   12.3545   -7.4183    0.0000 C   0  0  0  0  0  0  0  0  0  0  0  0
   14.6540   -7.4183    0.0000 C   0  0  0  0  0  0  0  0  0  0  0  0
   15.7689   -9.3694    0.0000 C   0  0  0  0  0  0  0  0  0  0  0  0
   14.6540  -11.3204    0.0000 C   0  0  0  0  0  0  0  0  0  0  0  0
   12.3545  -11.3204    0.0000 C   0  0  0  0  0  0  0  0  0  0  0  0
   16.8837   -8.7423    0.0000 C   0  0  0  0  0  0  0  0  0  0  0  0
   12.3545   -6.0944    0.0000 C   0  0  0  0  0  0  0  0  0  0  0  0
   15.7689   -8.1151    0.0000 C   0  0  0  0  0  0  0  0  0  0  0  0
   14.6540   -6.0944    0.0000 C   0  0  0  0  0  0  0  0  0  0  0  0
   16.8837  -10.0661    0.0000 N   0  0  0  0  0  0  0  0  0  0  0  0
   13.4694  -12.0172    0.0000 C   0  0  0  0  0  0  0  0  0  0  0  0
   13.5391   -5.4673    0.0000 C   0  0  0  0  0  0  0  0  0  0  0  0
   11.2397   -5.4673    0.0000 O   0  0  0  0  0  0  0  0  0  0  0  0
   18.2826  -10.0661    0.0000 C   0  0  0  0  0  0  0  0  0  0  0  0
   18.9855  -11.2834    0.0000 C   0  0  0  0  0  0  0  0  0  0  0  0
   20.3699  -11.2832    0.0000 C   0  0  0  0  0  0  0  0  0  0  0  0
  2  3  2  0
  3  4  1  0
  4  5  2  0
  5  6  1  0
  6  7  2  0
  2  7  1  0
  3  8  1  0
  8  9  1  0
  9 10  1  0
 10 11  1  0
 11 12  1  0
 12 13  1  0
  8 13  1  0
 11 14  1  0
  8 15  1  0
 15 16  1  0
 15 17  2  0
 16 18  1  0
 18 19  1  0
 20 21  1  0
 21 22  1  0
 22 23  1  0
 23 24  1  0
 24 25  1  0
 21 26  2  0
 22 27  1  1
 23 28  1  1
 24 29  2  0
 30 31  1  0
 30 32  1  0
 30 33  1  1
 30 34  1  0
 31 35  2  0
 31 36  1  0
 32 37  1  0
 32 38  1  6
 33 39  1  0
 34 40  1  0
 35 41  1  0
 36 42  1  0
 36 43  2  0
 37 44  1  0
 38 45  1  0
 41 46  2  0
 41 47  1  0
 37 42  1  1
 39 45  1  0
 40 44  1  0
 43 46  1  0
 44 48  1  0
 48 49  1  0
 49 50  2  0
M  END
