 
     RDKit          2D

 73 75  0  1  1  0  0  0  0  0999 V2000
   27.0190  -23.0527    0.0000 Cl  0  0  0  0  0  0  0  0  0  0  0  0
   27.2299  -20.5437    0.0000 O   0  0  0  0  0  0  0  0  0  0  0  0
   19.1395  -23.6495    0.0000 C   0  0  0  0  0  0  0  0  0  0  0  0
   19.1395  -22.3255    0.0000 C   0  0  0  0  0  0  0  0  0  0  0  0
   20.3241  -24.3462    0.0000 C   0  0  0  0  0  0  0  0  0  0  0  0
   18.0246  -24.2766    0.0000 C   0  0  0  0  0  0  0  0  0  0  0  0
   20.3241  -23.0224    0.0000 C   0  0  0  0  0  0  0  0  0  0  0  0
   18.0246  -21.6984    0.0000 C   0  0  0  0  0  0  0  0  0  0  0  0
   20.3241  -21.6984    0.0000 C   0  0  0  0  0  0  0  0  0  0  0  0
   21.4390  -23.6495    0.0000 C   0  0  0  0  0  0  0  0  0  0  0  0
   20.3241  -25.6005    0.0000 C   0  0  0  0  0  0  0  0  0  0  0  0
   16.7007  -22.9526    0.0000 O   0  0  0  0  0  0  0  0  0  0  0  0
   18.0246  -25.6005    0.0000 C   0  0  0  0  0  0  0  0  0  0  0  0
   22.5538  -23.0224    0.0000 C   0  0  0  0  0  0  0  0  0  0  0  0
   18.0246  -20.3745    0.0000 C   0  0  0  0  0  0  0  0  0  0  0  0
   21.4390  -22.3952    0.0000 C   0  0  0  0  0  0  0  0  0  0  0  0
   20.3241  -20.3745    0.0000 C   0  0  0  0  0  0  0  0  0  0  0  0
   22.5538  -24.3462    0.0000 N   0  0  0  0  0  0  0  0  0  0  0  0
   19.1395  -26.2973    0.0000 C   0  0  0  0  0  0  0  0  0  0  0  0
   16.9098  -26.2973    0.0000 O   0  0  0  0  0  0  0  0  0  0  0  0
   19.2092  -19.7474    0.0000 C   0  0  0  0  0  0  0  0  0  0  0  0
   16.9098  -19.7474    0.0000 O   0  0  0  0  0  0  0  0  0  0  0  0
   23.9527  -24.3462    0.0000 C   0  0  0  0  0  0  0  0  0  0  0  0
   27.2299  -20.5437    0.0000 O   0  0  0  0  0  0  0  0  0  0  0  0
   27.2299  -20.5437    0.0000 O   0  0  0  0  0  0  0  0  0  0  0  0
   30.5665  -18.3867    0.0000 S   0  0  0  0  0  0  0  0  0  0  0  0
   30.5665  -16.9867    0.0000 O   0  0  0  0  0  0  0  0  0  0  0  0
   30.5665  -19.7867    0.0000 O   0  0  0  0  0  0  0  0  0  0  0  0
   31.9665  -18.3867    0.0000 O   0  0  0  0  0  0  0  0  0  0  0  0
   29.1666  -18.3867    0.0000 O   0  0  0  0  0  0  0  0  0  0  0  0
   36.2599  -18.3400    0.0000 O   0  0  0  0  0  0  0  0  0  0  0  0
   15.7738  -18.5308    0.0000 C   0  0  0  0  0  0  0  0  0  0  0  0
   16.1019  -17.3591    0.0000 C   0  0  0  0  0  0  0  0  0  0  0  0
   16.9455  -18.2496    0.0000 C   0  0  0  0  0  0  0  0  0  0  0  0
   17.2736  -17.0779    0.0000 C   0  0  0  0  0  0  0  0  0  0  0  0
   16.0082  -15.7656    0.0000 N   0  0  0  0  0  0  0  0  0  0  0  0
   18.8202  -18.2496    0.0000 C   0  0  0  0  0  0  0  0  0  0  0  0
   18.5390  -17.0779    0.0000 C   0  0  0  0  0  0  0  0  0  0  0  0
   19.8513  -18.8120    0.0000 C   0  0  0  0  0  0  0  0  0  0  0  0
   20.9293  -19.7025    0.0000 O   0  0  0  0  0  0  0  0  0  0  0  0
   22.1479  -19.7025    0.0000 C   0  0  0  0  0  0  0  0  0  0  0  0
   22.7572  -18.6245    0.0000 C   0  0  0  0  0  0  0  0  0  0  0  0
   22.7572  -20.8273    0.0000 O   0  0  0  0  0  0  0  0  0  0  0  0
   23.9758  -18.6245    0.0000 C   0  0  0  0  0  0  0  0  0  0  0  0
   22.1479  -17.5934    0.0000 C   0  0  0  0  0  0  0  0  0  0  0  0
   22.7572  -16.5155    0.0000 O   0  0  0  0  0  0  0  0  0  0  0  0
   24.6820  -19.8482    0.0000 C   0  0  0  0  0  0  0  0  0  0  0  0
   26.0820  -19.8485    0.0000 C   0  0  0  0  0  0  0  0  0  0  0  0
   26.7822  -18.6362    0.0000 C   0  0  0  0  0  0  0  0  0  0  0  0
   26.0761  -17.4125    0.0000 C   0  0  0  0  0  0  0  0  0  0  0  0
   24.6761  -17.4122    0.0000 C   0  0  0  0  0  0  0  0  0  0  0  0
   15.2591  -14.5814    0.0000 C   0  0  0  0  0  0  0  0  0  0  0  0
   15.7738  -18.5308    0.0000 C   0  0  0  0  0  0  0  0  0  0  0  0
   16.1019  -17.3591    0.0000 C   0  0  0  0  0  0  0  0  0  0  0  0
   17.2736  -17.0779    0.0000 C   0  0  0  0  0  0  0  0  0  0  0  0
   18.5390  -17.0779    0.0000 C   0  0  0  0  0  0  0  0  0  0  0  0
   19.8513  -18.8120    0.0000 C   0  0  0  0  0  0  0  0  0  0  0  0
   18.8202  -18.2496    0.0000 C   0  0  0  0  0  0  0  0  0  0  0  0
   16.9455  -18.2496    0.0000 C   0  0  0  0  0  0  0  0  0  0  0  0
   16.0082  -15.7656    0.0000 N   0  0  0  0  0  0  0  0  0  0  0  0
   15.2591  -14.5814    0.0000 C   0  0  0  0  0  0  0  0  0  0  0  0
   20.9293  -19.7025    0.0000 O   0  0  0  0  0  0  0  0  0  0  0  0
   22.1479  -19.7025    0.0000 C   0  0  0  0  0  0  0  0  0  0  0  0
   22.7572  -18.6245    0.0000 C   0  0  0  0  0  0  0  0  0  0  0  0
   23.9758  -18.6245    0.0000 C   0  0  0  0  0  0  0  0  0  0  0  0
   24.6820  -19.8482    0.0000 C   0  0  0  0  0  0  0  0  0  0  0  0
   26.0820  -19.8485    0.0000 C   0  0  0  0  0  0  0  0  0  0  0  0
   26.7822  -18.6362    0.0000 C   0  0  0  0  0  0  0  0  0  0  0  0
   26.0761  -17.4125    0.0000 C   0  0  0  0  0  0  0  0  0  0  0  0
   24.6761  -17.4122    0.0000 C   0  0  0  0  0  0  0  0  0  0  0  0
   22.1479  -17.5934    0.0000 C   0  0  0  0  0  0  0  0  0  0  0  0
   22.7572  -16.5155    0.0000 O   0  0  0  0  0  0  0  0  0  0  0  0
   22.7572  -20.8273    0.0000 O   0  0  0  0  0  0  0  0  0  0  0  0
  3  4  1  0
  3  5  1  0
  3  6  1  0
  3  7  1  1
  4  8  2  0
  4  9  1  0
  5 10  1  0
  5 11  1  6
  6 12  1  6
  6 13  1  0
  7 14  1  0
  8 15  1  0
  9 16  1  0
  9 17  2  0
 10 18  1  0
 11 19  2  0
 13 20  1  6
 15 21  2  0
 15 22  1  0
  8 12  1  0
 10 16  1  1
 13 19  1  0
 14 18  1  0
 17 21  1  0
 18 23  1  0
 26 27  2  0
 26 28  2  0
 26 29  1  0
 26 30  1  0
 32 33  1  0
 34 32  1  6
 35 33  1  1
 34 36  1  0
 34 37  1  0
 35 38  1  0
 37 39  1  0
 39 40  1  6
 40 41  1  0
 41 42  1  0
 41 43  2  0
 42 44  1  0
 42 45  1  0
 45 46  1  0
 35 36  1  0
 38 39  1  0
 44 47  2  0
 47 48  1  0
 48 49  2  0
 49 50  1  0
 50 51  2  0
 44 51  1  0
 36 52  1  0
 53 54  1  0
 59 53  1  6
 55 54  1  1
 59 60  1  0
 59 58  1  0
 55 56  1  0
 58 57  1  0
 57 62  1  6
 62 63  1  0
 63 64  1  0
 63 73  2  0
 64 65  1  0
 64 71  1  0
 71 72  1  0
 55 60  1  0
 56 57  1  0
 65 66  2  0
 66 67  1  0
 67 68  2  0
 68 69  1  0
 69 70  2  0
 65 70  1  0
 60 61  1  0
M  STY  1   1 MUL
M  SLB  1   1   1
M  SCN  1   1 HT 
M  SAL   1  3   2  24  25
M  SPA   1  1   2
M  SDI   1  4   25.0600  -21.4200   25.0600  -19.5300
M  SDI   1  4   27.9300  -19.5300   27.9300  -21.4200
M  SMT   1 3
M  END
