 
     RDKit          2D

109123  0  0  1  0  0  0  0  0999 V2000
   39.6321  -23.1111    0.0000 C   0  0  0  0  0  0  0  0  0  0  0  0
   40.9878  -23.1106    0.0000 C   0  0  0  0  0  0  0  0  0  0  0  0
   41.4048  -21.8237    0.0000 C   0  0  0  0  0  0  0  0  0  0  0  0
   40.3054  -21.0232    0.0000 O   0  0  0  0  0  0  0  0  0  0  0  0
   39.2140  -21.8247    0.0000 C   0  0  0  0  0  0  0  0  0  0  0  0
   38.4445  -26.4882    0.0000 C   0  0  0  0  0  0  0  0  0  0  0  0
   37.2534  -27.1683    0.0000 C   0  0  0  0  0  0  0  0  0  0  0  0
   38.4562  -25.1289    0.0000 C   0  0  0  0  0  0  0  0  0  0  0  0
   40.7960  -26.4486    0.0000 C   0  0  0  0  0  0  0  0  0  0  0  0
   38.4781  -28.0519    0.0000 O   0  0  0  0  0  0  0  0  0  0  0  0
   36.0929  -26.4707    0.0000 C   0  0  0  0  0  0  0  0  0  0  0  0
   37.2534  -28.5217    0.0000 C   0  0  0  0  0  0  0  0  0  0  0  0
   39.6412  -24.4673    0.0000 C   0  0  0  0  0  0  0  0  0  0  0  0
   37.2838  -24.4429    0.0000 C   0  0  0  0  0  0  0  0  0  0  0  0
   38.4748  -23.6797    0.0000 C   0  0  0  0  0  0  0  0  0  0  0  0
   40.8204  -25.1652    0.0000 C   0  0  0  0  0  0  0  0  0  0  0  0
   34.8319  -27.1625    0.0000 C   0  0  0  0  0  0  0  0  0  0  0  0
   36.0988  -25.1173    0.0000 C   0  0  0  0  0  0  0  0  0  0  0  0
   36.0800  -29.2196    0.0000 C   0  0  0  0  0  0  0  0  0  0  0  0
   34.8890  -28.5217    0.0000 C   0  0  0  0  0  0  0  0  0  0  0  0
   33.7226  -26.4707    0.0000 C   0  0  0  0  0  0  0  0  0  0  0  0
   34.9557  -25.6222    0.0000 C   0  0  0  0  0  0  0  0  0  0  0  0
   33.7226  -29.2137    0.0000 C   0  0  0  0  0  0  0  0  0  0  0  0
   32.5259  -27.1625    0.0000 C   0  0  0  0  0  0  0  0  0  0  0  0
   32.5259  -28.5217    0.0000 C   0  0  0  0  0  0  0  0  0  0  0  0
   31.3524  -29.2196    0.0000 O   0  0  0  0  0  0  0  0  0  0  0  0
   29.9756  -28.5160    0.0000 C   0  0  0  0  0  0  0  0  0  0  0  0
   28.7964  -29.1949    0.0000 C   0  0  0  0  0  0  0  0  0  0  0  0
   29.9756  -27.1497    0.0000 O   0  0  0  0  0  0  0  0  0  0  0  0
   27.6114  -28.5160    0.0000 C   0  0  0  0  0  0  0  0  0  0  0  0
   28.7964  -26.4648    0.0000 C   0  0  0  0  0  0  0  0  0  0  0  0
   27.6114  -27.1497    0.0000 C   0  0  0  0  0  0  0  0  0  0  0  0
   26.4260  -29.1949    0.0000 O   0  0  0  0  0  0  0  0  0  0  0  0
   28.7964  -25.0868    0.0000 C   0  0  0  0  0  0  0  0  0  0  0  0
   26.3725  -26.3983    0.0000 O   0  0  0  0  0  0  0  0  0  0  0  0
   25.0727  -27.1497    0.0000 C   0  0  0  0  0  0  0  0  0  0  0  0
   23.8948  -26.4648    0.0000 C   0  0  0  0  0  0  0  0  0  0  0  0
   25.0727  -28.5160    0.0000 O   0  0  0  0  0  0  0  0  0  0  0  0
   22.7096  -27.1497    0.0000 C   0  0  0  0  0  0  0  0  0  0  0  0
   23.8948  -29.1949    0.0000 C   0  0  0  0  0  0  0  0  0  0  0  0
   22.7096  -28.5160    0.0000 C   0  0  0  0  0  0  0  0  0  0  0  0
   21.5244  -26.4519    0.0000 O   0  0  0  0  0  0  0  0  0  0  0  0
   23.9005  -30.5672    0.0000 C   0  0  0  0  0  0  0  0  0  0  0  0
   21.6027  -29.2850    0.0000 O   0  0  0  0  0  0  0  0  0  0  0  0
   20.3393  -28.5160    0.0000 C   0  0  0  0  0  0  0  0  0  0  0  0
   19.1600  -29.1949    0.0000 C   0  0  0  0  0  0  0  0  0  0  0  0
   20.3393  -27.1497    0.0000 O   0  0  0  0  0  0  0  0  0  0  0  0
   17.9882  -28.5160    0.0000 C   0  0  0  0  0  0  0  0  0  0  0  0
   19.1600  -26.4648    0.0000 C   0  0  0  0  0  0  0  0  0  0  0  0
   17.9882  -27.1497    0.0000 C   0  0  0  0  0  0  0  0  0  0  0  0
   16.8120  -29.1949    0.0000 O   0  0  0  0  0  0  0  0  0  0  0  0
   19.1600  -25.0868    0.0000 C   0  0  0  0  0  0  0  0  0  0  0  0
   16.8120  -26.4648    0.0000 O   0  0  0  0  0  0  0  0  0  0  0  0
   42.7053  -21.4619    0.0000 O   0  0  0  0  0  0  0  0  0  0  0  0
   35.0867  -21.3074    0.0000 C   0  0  0  0  0  0  0  0  0  0  0  0
   33.8842  -21.9889    0.0000 C   0  0  0  0  0  0  0  0  0  0  0  0
   35.0982  -19.9298    0.0000 C   0  0  0  0  0  0  0  0  0  0  0  0
   37.4713  -21.2677    0.0000 C   0  0  0  0  0  0  0  0  0  0  0  0
   35.0679  -22.6836    0.0000 O   0  0  0  0  0  0  0  0  0  0  0  0
   32.6948  -21.2886    0.0000 C   0  0  0  0  0  0  0  0  0  0  0  0
   33.8842  -23.3781    0.0000 C   0  0  0  0  0  0  0  0  0  0  0  0
   36.3064  -19.2539    0.0000 C   0  0  0  0  0  0  0  0  0  0  0  0
   33.9088  -19.2296    0.0000 C   0  0  0  0  0  0  0  0  0  0  0  0
   35.0924  -18.5479    0.0000 C   0  0  0  0  0  0  0  0  0  0  0  0
   37.4960  -19.9603    0.0000 C   0  0  0  0  0  0  0  0  0  0  0  0
   31.4935  -21.9832    0.0000 C   0  0  0  0  0  0  0  0  0  0  0  0
   32.6948  -19.9124    0.0000 C   0  0  0  0  0  0  0  0  0  0  0  0
   32.6761  -24.0668    0.0000 C   0  0  0  0  0  0  0  0  0  0  0  0
   36.3181  -17.8708    0.0000 C   0  0  0  0  0  0  0  0  0  0  0  0
   38.6913  -19.2843    0.0000 O   0  0  0  0  0  0  0  0  0  0  0  0
   31.4935  -23.3665    0.0000 C   0  0  0  0  0  0  0  0  0  0  0  0
   30.2913  -21.2886    0.0000 C   0  0  0  0  0  0  0  0  0  0  0  0
   31.4750  -20.5941    0.0000 C   0  0  0  0  0  0  0  0  0  0  0  0
   37.7014  -17.8708    0.0000 C   0  0  0  0  0  0  0  0  0  0  0  0
   35.8955  -16.5610    0.0000 C   0  0  0  0  0  0  0  0  0  0  0  0
   30.2913  -24.0610    0.0000 C   0  0  0  0  0  0  0  0  0  0  0  0
   29.0831  -21.9832    0.0000 C   0  0  0  0  0  0  0  0  0  0  0  0
   38.1298  -16.5610    0.0000 C   0  0  0  0  0  0  0  0  0  0  0  0
   37.0128  -15.7392    0.0000 O   0  0  0  0  0  0  0  0  0  0  0  0
   29.0831  -23.3665    0.0000 C   0  0  0  0  0  0  0  0  0  0  0  0
   39.4466  -16.1256    0.0000 O   0  0  0  0  0  0  0  0  0  0  0  0
   27.8820  -24.0610    0.0000 O   0  0  0  0  0  0  0  0  0  0  0  0
   26.6738  -23.3665    0.0000 C   0  0  0  0  0  0  0  0  0  0  0  0
   25.4784  -24.0668    0.0000 C   0  0  0  0  0  0  0  0  0  0  0  0
   26.6679  -21.9832    0.0000 O   0  0  0  0  0  0  0  0  0  0  0  0
   24.2831  -23.3781    0.0000 C   0  0  0  0  0  0  0  0  0  0  0  0
   25.4725  -21.2886    0.0000 C   0  0  0  0  0  0  0  0  0  0  0  0
   24.2702  -21.9889    0.0000 C   0  0  0  0  0  0  0  0  0  0  0  0
   23.0690  -24.0784    0.0000 O   0  0  0  0  0  0  0  0  0  0  0  0
   25.4668  -19.9124    0.0000 C   0  0  0  0  0  0  0  0  0  0  0  0
   23.0632  -21.3074    0.0000 O   0  0  0  0  0  0  0  0  0  0  0  0
   21.8609  -21.9832    0.0000 C   0  0  0  0  0  0  0  0  0  0  0  0
   20.6597  -21.3074    0.0000 C   0  0  0  0  0  0  0  0  0  0  0  0
   21.8609  -23.3781    0.0000 O   0  0  0  0  0  0  0  0  0  0  0  0
   19.4457  -21.9889    0.0000 C   0  0  0  0  0  0  0  0  0  0  0  0
   20.6597  -24.0727    0.0000 C   0  0  0  0  0  0  0  0  0  0  0  0
   19.4457  -23.3781    0.0000 C   0  0  0  0  0  0  0  0  0  0  0  0
   18.3904  -21.0274    0.0000 O   0  0  0  0  0  0  0  0  0  0  0  0
   20.6597  -25.4619    0.0000 C   0  0  0  0  0  0  0  0  0  0  0  0
   18.2504  -24.0727    0.0000 O   0  0  0  0  0  0  0  0  0  0  0  0
   17.0422  -23.3781    0.0000 C   0  0  0  0  0  0  0  0  0  0  0  0
   17.0364  -21.9889    0.0000 O   0  0  0  0  0  0  0  0  0  0  0  0
   15.8526  -24.0784    0.0000 C   0  0  0  0  0  0  0  0  0  0  0  0
   15.8338  -21.3074    0.0000 C   0  0  0  0  0  0  0  0  0  0  0  0
   14.6445  -23.4028    0.0000 C   0  0  0  0  0  0  0  0  0  0  0  0
   14.6329  -22.0077    0.0000 C   0  0  0  0  0  0  0  0  0  0  0  0
   15.8338  -19.9241    0.0000 C   0  0  0  0  0  0  0  0  0  0  0  0
   13.4570  -24.0972    0.0000 O   0  0  0  0  0  0  0  0  0  0  0  0
   13.4570  -21.3191    0.0000 O   0  0  0  0  0  0  0  0  0  0  0  0
  5  1  1  0
  1  2  2  0
  2  3  1  0
  6  7  1  0
  6  8  1  0
  6  9  1  0
  6 10  1  1
  7 11  1  0
  7 12  1  6
  8 13  1  0
  8 14  1  0
  8 15  1  1
  9 16  1  0
 11 17  1  0
 11 18  1  1
 12 19  1  0
 17 20  1  0
 17 21  1  0
 17 22  1  1
 20 23  1  6
 21 24  1  0
 23 25  1  0
 25 26  1  1
 27 26  1  1
 27 28  1  0
 27 29  1  0
 28 30  1  0
 29 31  1  0
 30 32  1  0
 30 33  1  6
 31 34  1  1
 32 35  1  6
 36 35  1  6
 36 37  1  0
 36 38  1  0
 37 39  1  0
 38 40  1  0
 39 41  1  0
 39 42  1  1
 40 43  1  6
 41 44  1  1
 45 44  1  1
 45 46  1  0
 45 47  1  0
 46 48  1  0
 47 49  1  0
 48 50  1  0
 48 51  1  6
 49 52  1  1
 50 53  1  6
 13 16  1  0
 14 18  1  0
 19 20  1  0
 24 25  1  0
 31 32  1  0
 40 41  1  0
 49 50  1  0
  3  4  1  0
 13  1  1  1
  4  5  1  0
  3 54  2  0
 55 56  1  0
 55 57  1  0
 55 58  1  0
 55 59  1  1
 56 60  1  0
 56 61  1  6
 57 62  1  0
 57 63  1  0
 57 64  1  1
 58 65  1  0
 60 66  1  0
 60 67  1  1
 61 68  1  0
 62 69  1  1
 65 70  1  1
 66 71  1  0
 66 72  1  0
 66 73  1  1
 69 74  2  0
 69 75  1  0
 71 76  1  6
 72 77  1  0
 74 78  1  0
 75 79  1  0
 76 80  1  0
 78 81  2  0
 80 82  1  1
 83 82  1  1
 83 84  1  0
 83 85  1  0
 84 86  1  0
 85 87  1  0
 86 88  1  0
 86 89  1  6
 87 90  1  1
 88 91  1  6
 92 91  1  6
 92 93  1  0
 92 94  1  0
 93 95  1  0
 94 96  1  0
 95 97  1  0
 95 98  1  1
 96 99  1  6
 97100  1  1
101100  1  1
101102  1  0
101103  1  0
102104  1  0
103105  1  0
104106  1  0
104107  1  1
105108  1  6
106109  1  6
 62 65  1  0
 63 67  1  0
 68 71  1  0
 77 80  1  0
 78 79  1  0
 87 88  1  0
 96 97  1  0
105106  1  0
M  END
