 
     RDKit          2D

  5  3  0  0  0  0  0  0  0  0999 V2000
   25.0892  -17.0158    0.0000 N   0  0  0  0  0  0  0  0  0  0  0  0
   23.6453  -17.0100    0.0000 N   0  0  0  0  0  0  0  0  0  0  0  0
   26.4453  -17.0100    0.0000 O   0  0  0  0  0  0  0  0  0  0  0  0
   24.4255  -17.2137    0.0000 O   0  0  0  0  0  0  0  0  0  0  0  0
   26.1055  -17.2137    0.0000 O   0  0  0  0  0  0  0  0  0  0  0  0
  1  2  2  0
  1  3  2  0
  4  5  2  0
M  CHG  2   1   1   2  -1
M  END
