 
     RDKit          2D

236261  0  0  1  0  0  0  0  0999 V2000
   28.6359  -15.6767    0.0000 C   0  0  0  0  0  0  0  0  0  0  0  0
   27.4284  -14.9827    0.0000 C   0  0  0  0  0  0  0  0  0  0  0  0
   29.8551  -14.9944    0.0000 N   0  0  0  0  0  0  0  0  0  0  0  0
   28.6242  -17.0768    0.0000 C   0  0  0  0  0  0  0  0  0  0  0  0
   27.4342  -13.5828    0.0000 C   0  0  0  0  0  0  0  0  0  0  0  0
   26.2268  -15.6826    0.0000 C   0  0  0  0  0  0  0  0  0  0  0  0
   31.0567  -15.7001    0.0000 C   0  0  0  0  0  0  0  0  0  0  0  0
   29.8609  -13.5945    0.0000 C   0  0  0  0  0  0  0  0  0  0  0  0
   29.8318  -17.7825    0.0000 C   0  0  0  0  0  0  0  0  0  0  0  0
   26.2268  -12.8770    0.0000 C   0  0  0  0  0  0  0  0  0  0  0  0
   28.6475  -12.8829    0.0000 C   0  0  0  0  0  0  0  0  0  0  0  0
   25.0078  -14.9827    0.0000 C   0  0  0  0  0  0  0  0  0  0  0  0
   31.1150  -17.1001    0.0000 C   0  0  0  0  0  0  0  0  0  0  0  0
   25.0078  -13.5828    0.0000 C   0  0  0  0  0  0  0  0  0  0  0  0
   23.7945  -15.6826    0.0000 O   0  0  0  0  0  0  0  0  0  0  0  0
   32.2522  -17.7942    0.0000 C   0  0  0  0  0  0  0  0  0  0  0  0
   23.7945  -12.8770    0.0000 O   0  0  0  0  0  0  0  0  0  0  0  0
   22.5753  -14.9827    0.0000 C   0  0  0  0  0  0  0  0  0  0  0  0
   33.4656  -17.0825    0.0000 C   0  0  0  0  0  0  0  0  0  0  0  0
   22.5812  -13.5769    0.0000 C   0  0  0  0  0  0  0  0  0  0  0  0
   29.8201  -19.1884    0.0000 C   0  0  0  0  0  0  0  0  0  0  0  0
   28.5308  -19.8767    0.0000 C   0  0  0  0  0  0  0  0  0  0  0  0
   28.5775  -21.2765    0.0000 C   0  0  0  0  0  0  0  0  0  0  0  0
   27.4051  -19.1591    0.0000 N   0  0  0  0  0  0  0  0  0  0  0  0
   27.2885  -21.9531    0.0000 C   0  0  0  0  0  0  0  0  0  0  0  0
   29.7734  -22.0056    0.0000 C   0  0  0  0  0  0  0  0  0  0  0  0
   26.1743  -19.8358    0.0000 C   0  0  0  0  0  0  0  0  0  0  0  0
   27.3177  -23.3471    0.0000 C   0  0  0  0  0  0  0  0  0  0  0  0
   26.1627  -21.2356    0.0000 C   0  0  0  0  0  0  0  0  0  0  0  0
   29.7384  -23.4055    0.0000 C   0  0  0  0  0  0  0  0  0  0  0  0
   28.5135  -24.0705    0.0000 C   0  0  0  0  0  0  0  0  0  0  0  0
   30.9458  -24.1172    0.0000 O   0  0  0  0  0  0  0  0  0  0  0  0
   28.5075  -25.4704    0.0000 O   0  0  0  0  0  0  0  0  0  0  0  0
   27.2738  -26.1780    0.0000 C   0  0  0  0  0  0  0  0  0  0  0  0
   30.9458  -25.5166    0.0000 C   0  0  0  0  0  0  0  0  0  0  0  0
   29.4832  -13.4202    0.0000 C   0  0  0  0  0  0  0  0  0  0  0  0
   28.2751  -12.7257    0.0000 C   0  0  0  0  0  0  0  0  0  0  0  0
   30.7030  -12.7374    0.0000 N   0  0  0  0  0  0  0  0  0  0  0  0
   29.4715  -14.8208    0.0000 C   0  0  0  0  0  0  0  0  0  0  0  0
   28.2809  -11.3251    0.0000 C   0  0  0  0  0  0  0  0  0  0  0  0
   27.0728  -13.4261    0.0000 C   0  0  0  0  0  0  0  0  0  0  0  0
   31.9051  -13.4435    0.0000 C   0  0  0  0  0  0  0  0  0  0  0  0
   30.7087  -11.3368    0.0000 C   0  0  0  0  0  0  0  0  0  0  0  0
   30.6796  -15.5271    0.0000 C   0  0  0  0  0  0  0  0  0  0  0  0
   27.0728  -10.6190    0.0000 C   0  0  0  0  0  0  0  0  0  0  0  0
   29.4949  -10.6247    0.0000 C   0  0  0  0  0  0  0  0  0  0  0  0
   25.8531  -12.7257    0.0000 C   0  0  0  0  0  0  0  0  0  0  0  0
   31.8934  -14.8442    0.0000 C   0  0  0  0  0  0  0  0  0  0  0  0
   30.6679  -16.9277    0.0000 C   0  0  0  0  0  0  0  0  0  0  0  0
   25.8531  -11.3251    0.0000 C   0  0  0  0  0  0  0  0  0  0  0  0
   24.6393  -13.4261    0.0000 O   0  0  0  0  0  0  0  0  0  0  0  0
   33.1015  -15.5388    0.0000 C   0  0  0  0  0  0  0  0  0  0  0  0
   29.4482  -17.6222    0.0000 C   0  0  0  0  0  0  0  0  0  0  0  0
   24.6393  -10.6190    0.0000 O   0  0  0  0  0  0  0  0  0  0  0  0
   23.4195  -12.7257    0.0000 C   0  0  0  0  0  0  0  0  0  0  0  0
   34.3153  -14.8267    0.0000 C   0  0  0  0  0  0  0  0  0  0  0  0
   29.4948  -19.0228    0.0000 C   0  0  0  0  0  0  0  0  0  0  0  0
   28.2518  -16.9044    0.0000 N   0  0  0  0  0  0  0  0  0  0  0  0
   23.4254  -11.3193    0.0000 C   0  0  0  0  0  0  0  0  0  0  0  0
   28.2051  -19.6998    0.0000 C   0  0  0  0  0  0  0  0  0  0  0  0
   30.6212  -19.7523    0.0000 C   0  0  0  0  0  0  0  0  0  0  0  0
   27.0261  -17.5814    0.0000 C   0  0  0  0  0  0  0  0  0  0  0  0
   28.2400  -21.0945    0.0000 C   0  0  0  0  0  0  0  0  0  0  0  0
   27.0087  -18.9820    0.0000 C   0  0  0  0  0  0  0  0  0  0  0  0
   30.5919  -21.1529    0.0000 C   0  0  0  0  0  0  0  0  0  0  0  0
   29.3607  -21.8182    0.0000 C   0  0  0  0  0  0  0  0  0  0  0  0
   31.7942  -21.8649    0.0000 O   0  0  0  0  0  0  0  0  0  0  0  0
   29.3548  -23.2189    0.0000 O   0  0  0  0  0  0  0  0  0  0  0  0
   31.7651  -23.2656    0.0000 C   0  0  0  0  0  0  0  0  0  0  0  0
   24.3686  -16.7501    0.0000 C   0  0  0  0  0  0  0  0  0  0  0  0
   23.1607  -16.0558    0.0000 C   0  0  0  0  0  0  0  0  0  0  0  0
   25.5881  -16.0675    0.0000 N   0  0  0  0  0  0  0  0  0  0  0  0
   24.3569  -18.1505    0.0000 C   0  0  0  0  0  0  0  0  0  0  0  0
   23.1665  -14.6554    0.0000 C   0  0  0  0  0  0  0  0  0  0  0  0
   21.9586  -16.7560    0.0000 C   0  0  0  0  0  0  0  0  0  0  0  0
   26.7901  -16.7735    0.0000 C   0  0  0  0  0  0  0  0  0  0  0  0
   25.5939  -14.6670    0.0000 C   0  0  0  0  0  0  0  0  0  0  0  0
   25.5648  -18.8565    0.0000 C   0  0  0  0  0  0  0  0  0  0  0  0
   21.9586  -13.9492    0.0000 C   0  0  0  0  0  0  0  0  0  0  0  0
   24.3803  -13.9552    0.0000 C   0  0  0  0  0  0  0  0  0  0  0  0
   20.7392  -16.0558    0.0000 C   0  0  0  0  0  0  0  0  0  0  0  0
   26.7784  -18.1739    0.0000 C   0  0  0  0  0  0  0  0  0  0  0  0
   20.7392  -14.6554    0.0000 C   0  0  0  0  0  0  0  0  0  0  0  0
   19.5254  -16.7560    0.0000 O   0  0  0  0  0  0  0  0  0  0  0  0
   27.9863  -18.8682    0.0000 C   0  0  0  0  0  0  0  0  0  0  0  0
   19.5254  -13.9492    0.0000 O   0  0  0  0  0  0  0  0  0  0  0  0
   18.3059  -16.0558    0.0000 C   0  0  0  0  0  0  0  0  0  0  0  0
   29.2001  -18.1563    0.0000 C   0  0  0  0  0  0  0  0  0  0  0  0
   18.3118  -14.6495    0.0000 C   0  0  0  0  0  0  0  0  0  0  0  0
   25.5531  -20.2629    0.0000 C   0  0  0  0  0  0  0  0  0  0  0  0
   24.3336  -20.9514    0.0000 C   0  0  0  0  0  0  0  0  0  0  0  0
   24.3102  -22.3519    0.0000 C   0  0  0  0  0  0  0  0  0  0  0  0
   23.1374  -20.2336    0.0000 N   0  0  0  0  0  0  0  0  0  0  0  0
   23.0907  -23.0287    0.0000 C   0  0  0  0  0  0  0  0  0  0  0  0
   25.5064  -23.0812    0.0000 C   0  0  0  0  0  0  0  0  0  0  0  0
   21.9062  -20.9105    0.0000 C   0  0  0  0  0  0  0  0  0  0  0  0
   23.0499  -24.4232    0.0000 C   0  0  0  0  0  0  0  0  0  0  0  0
   21.8945  -22.3109    0.0000 C   0  0  0  0  0  0  0  0  0  0  0  0
   25.4714  -24.4816    0.0000 C   0  0  0  0  0  0  0  0  0  0  0  0
   24.2461  -25.1468    0.0000 C   0  0  0  0  0  0  0  0  0  0  0  0
   26.6792  -25.1935    0.0000 O   0  0  0  0  0  0  0  0  0  0  0  0
   24.2402  -26.5472    0.0000 O   0  0  0  0  0  0  0  0  0  0  0  0
   26.6501  -26.5939    0.0000 C   0  0  0  0  0  0  0  0  0  0  0  0
   24.3600  -16.3800    0.0000 C   0  0  0  0  0  0  0  0  0  0  0  0
   23.1700  -15.6800    0.0000 C   0  0  0  0  0  0  0  0  0  0  0  0
   25.6200  -15.7500    0.0000 N   0  0  0  0  0  0  0  0  0  0  0  0
   24.3600  -17.7800    0.0000 C   0  0  0  0  0  0  0  0  0  0  0  0
   23.1700  -14.2800    0.0000 C   0  0  0  0  0  0  0  0  0  0  0  0
   21.9800  -16.3800    0.0000 C   0  0  0  0  0  0  0  0  0  0  0  0
   26.8100  -16.4500    0.0000 C   0  0  0  0  0  0  0  0  0  0  0  0
   25.6200  -14.3500    0.0000 C   0  0  0  0  0  0  0  0  0  0  0  0
   25.5500  -18.4800    0.0000 C   0  0  0  0  0  0  0  0  0  0  0  0
   21.9800  -13.5800    0.0000 C   0  0  0  0  0  0  0  0  0  0  0  0
   24.3600  -13.5800    0.0000 C   0  0  0  0  0  0  0  0  0  0  0  0
   20.7200  -15.6800    0.0000 C   0  0  0  0  0  0  0  0  0  0  0  0
   26.8100  -17.8500    0.0000 C   0  0  0  0  0  0  0  0  0  0  0  0
   20.7200  -14.2800    0.0000 C   0  0  0  0  0  0  0  0  0  0  0  0
   19.5300  -16.3800    0.0000 O   0  0  0  0  0  0  0  0  0  0  0  0
   28.0000  -18.5500    0.0000 C   0  0  0  0  0  0  0  0  0  0  0  0
   19.5300  -13.5800    0.0000 O   0  0  0  0  0  0  0  0  0  0  0  0
   18.3400  -15.6800    0.0000 C   0  0  0  0  0  0  0  0  0  0  0  0
   29.1900  -17.7800    0.0000 C   0  0  0  0  0  0  0  0  0  0  0  0
   18.3400  -14.2800    0.0000 C   0  0  0  0  0  0  0  0  0  0  0  0
   25.5500  -19.9500    0.0000 C   0  0  0  0  0  0  0  0  0  0  0  0
   24.3600  -20.5800    0.0000 C   0  0  0  0  0  0  0  0  0  0  0  0
   24.2900  -21.9800    0.0000 C   0  0  0  0  0  0  0  0  0  0  0  0
   23.1700  -19.8800    0.0000 N   0  0  0  0  0  0  0  0  0  0  0  0
   23.1000  -22.6800    0.0000 C   0  0  0  0  0  0  0  0  0  0  0  0
   25.4800  -22.7500    0.0000 C   0  0  0  0  0  0  0  0  0  0  0  0
   21.9100  -20.5800    0.0000 C   0  0  0  0  0  0  0  0  0  0  0  0
   23.0300  -24.0800    0.0000 C   0  0  0  0  0  0  0  0  0  0  0  0
   21.9100  -21.9800    0.0000 C   0  0  0  0  0  0  0  0  0  0  0  0
   25.4800  -24.1500    0.0000 C   0  0  0  0  0  0  0  0  0  0  0  0
   24.2200  -24.7800    0.0000 C   0  0  0  0  0  0  0  0  0  0  0  0
   26.6700  -24.8500    0.0000 O   0  0  0  0  0  0  0  0  0  0  0  0
   24.2200  -26.1800    0.0000 O   0  0  0  0  0  0  0  0  0  0  0  0
   26.6700  -26.2500    0.0000 C   0  0  0  0  0  0  0  0  0  0  0  0
   23.0300  -26.8800    0.0000 C   0  0  0  0  0  0  0  0  0  0  0  0
   28.0977  -15.5071    0.0000 C   0  0  0  0  0  0  0  0  0  0  0  0
   26.8967  -14.8021    0.0000 C   0  0  0  0  0  0  0  0  0  0  0  0
   29.3035  -14.8138    0.0000 N   0  0  0  0  0  0  0  0  0  0  0  0
   26.9026  -13.4154    0.0000 C   0  0  0  0  0  0  0  0  0  0  0  0
   25.7085  -15.5011    0.0000 C   0  0  0  0  0  0  0  0  0  0  0  0
   29.3094  -13.4270    0.0000 C   0  0  0  0  0  0  0  0  0  0  0  0
   28.1094  -12.7278    0.0000 C   0  0  0  0  0  0  0  0  0  0  0  0
   25.7085  -12.7221    0.0000 C   0  0  0  0  0  0  0  0  0  0  0  0
   24.5027  -14.8021    0.0000 C   0  0  0  0  0  0  0  0  0  0  0  0
   24.5027  -13.4154    0.0000 C   0  0  0  0  0  0  0  0  0  0  0  0
   23.2899  -15.4954    0.0000 O   0  0  0  0  0  0  0  0  0  0  0  0
   23.2899  -12.7221    0.0000 O   0  0  0  0  0  0  0  0  0  0  0  0
   29.2957  -19.9350    0.0000 C   0  0  0  0  0  0  0  0  0  0  0  0
   29.2957  -18.5705    0.0000 C   0  0  0  0  0  0  0  0  0  0  0  0
   30.4606  -20.6226    0.0000 C   0  0  0  0  0  0  0  0  0  0  0  0
   28.1307  -20.6051    0.0000 C   0  0  0  0  0  0  0  0  0  0  0  0
   30.4606  -17.8948    0.0000 C   0  0  0  0  0  0  0  0  0  0  0  0
   28.1026  -17.8806    0.0000 C   0  0  0  0  0  0  0  0  0  0  0  0
   31.4340  -22.1772    0.0000 O   0  0  0  0  0  0  0  0  0  0  0  0
   31.6442  -19.9350    0.0000 O   0  0  0  0  0  0  0  0  0  0  0  0
   26.9647  -19.9234    0.0000 C   0  0  0  0  0  0  0  0  0  0  0  0
   31.6442  -18.5705    0.0000 C   0  0  0  0  0  0  0  0  0  0  0  0
   30.4548  -16.5548    0.0000 C   0  0  0  0  0  0  0  0  0  0  0  0
   29.7087  -23.0106    0.0000 C   0  0  0  0  0  0  0  0  0  0  0  0
   31.6266  -15.8789    0.0000 O   0  0  0  0  0  0  0  0  0  0  0  0
   29.2840  -15.8848    0.0000 O   0  0  0  0  0  0  0  0  0  0  0  0
   28.5440  -22.3348    0.0000 O   0  0  0  0  0  0  0  0  0  0  0  0
   29.7087  -24.3507    0.0000 C   0  0  0  0  0  0  0  0  0  0  0  0
   32.7857  -16.5548    0.0000 C   0  0  0  0  0  0  0  0  0  0  0  0
   27.3790  -23.0106    0.0000 C   0  0  0  0  0  0  0  0  0  0  0  0
   28.5440  -25.0323    0.0000 C   0  0  0  0  0  0  0  0  0  0  0  0
   30.8866  -25.0323    0.0000 O   0  0  0  0  0  0  0  0  0  0  0  0
   27.3790  -24.3507    0.0000 C   0  0  0  0  0  0  0  0  0  0  0  0
   26.2189  -22.3348    0.0000 C   0  0  0  0  0  0  0  0  0  0  0  0
   28.5440  -26.3723    0.0000 O   0  0  0  0  0  0  0  0  0  0  0  0
   26.2189  -25.0323    0.0000 O   0  0  0  0  0  0  0  0  0  0  0  0
   25.1882  -23.2032    0.0000 O   0  0  0  0  0  0  0  0  0  0  0  0
   30.4885  -14.1107    0.0000 C   0  0  0  0  0  0  0  0  0  0  0  0
   31.6912  -14.7884    0.0000 C   0  0  0  0  0  0  0  0  0  0  0  0
   30.5431  -12.7985    0.0000 O   0  0  0  0  0  0  0  0  0  0  0  0
   27.3150  -13.8636    0.0000 C   0  0  0  0  0  0  0  0  0  0  0  0
   26.1071  -13.1692    0.0000 C   0  0  0  0  0  0  0  0  0  0  0  0
   28.5346  -13.1809    0.0000 N   0  0  0  0  0  0  0  0  0  0  0  0
   27.3033  -15.2641    0.0000 C   0  0  0  0  0  0  0  0  0  0  0  0
   26.1128  -11.7687    0.0000 C   0  0  0  0  0  0  0  0  0  0  0  0
   24.9049  -13.8695    0.0000 C   0  0  0  0  0  0  0  0  0  0  0  0
   29.7367  -13.8869    0.0000 C   0  0  0  0  0  0  0  0  0  0  0  0
   28.5404  -11.7804    0.0000 C   0  0  0  0  0  0  0  0  0  0  0  0
   28.5113  -15.9701    0.0000 C   0  0  0  0  0  0  0  0  0  0  0  0
   24.9049  -11.0625    0.0000 C   0  0  0  0  0  0  0  0  0  0  0  0
   27.3267  -11.0684    0.0000 C   0  0  0  0  0  0  0  0  0  0  0  0
   23.6854  -13.1692    0.0000 C   0  0  0  0  0  0  0  0  0  0  0  0
   29.7250  -15.2875    0.0000 C   0  0  0  0  0  0  0  0  0  0  0  0
   28.4996  -17.3766    0.0000 C   0  0  0  0  0  0  0  0  0  0  0  0
   23.6854  -11.7687    0.0000 C   0  0  0  0  0  0  0  0  0  0  0  0
   22.4715  -13.8695    0.0000 O   0  0  0  0  0  0  0  0  0  0  0  0
   30.9329  -15.9818    0.0000 C   0  0  0  0  0  0  0  0  0  0  0  0
   27.2100  -18.0652    0.0000 C   0  0  0  0  0  0  0  0  0  0  0  0
   22.4715  -11.0625    0.0000 O   0  0  0  0  0  0  0  0  0  0  0  0
   21.2519  -13.1692    0.0000 C   0  0  0  0  0  0  0  0  0  0  0  0
   32.1468  -15.2699    0.0000 C   0  0  0  0  0  0  0  0  0  0  0  0
   27.2566  -19.4657    0.0000 C   0  0  0  0  0  0  0  0  0  0  0  0
   26.0837  -17.3473    0.0000 N   0  0  0  0  0  0  0  0  0  0  0  0
   21.2578  -11.7628    0.0000 C   0  0  0  0  0  0  0  0  0  0  0  0
   26.0370  -20.1426    0.0000 C   0  0  0  0  0  0  0  0  0  0  0  0
   28.4529  -20.1951    0.0000 C   0  0  0  0  0  0  0  0  0  0  0  0
   24.8524  -18.0242    0.0000 C   0  0  0  0  0  0  0  0  0  0  0  0
   26.0662  -21.5372    0.0000 C   0  0  0  0  0  0  0  0  0  0  0  0
   24.8407  -19.4248    0.0000 C   0  0  0  0  0  0  0  0  0  0  0  0
   28.4179  -21.5956    0.0000 C   0  0  0  0  0  0  0  0  0  0  0  0
   27.1925  -22.2608    0.0000 C   0  0  0  0  0  0  0  0  0  0  0  0
   29.6258  -22.3075    0.0000 O   0  0  0  0  0  0  0  0  0  0  0  0
   27.1866  -23.6614    0.0000 O   0  0  0  0  0  0  0  0  0  0  0  0
   29.5967  -23.5681    0.0000 C   0  0  0  0  0  0  0  0  0  0  0  0
   28.3945  -24.5016    0.0000 C   0  0  0  0  0  0  0  0  0  0  0  0
   27.0738  -19.8726    0.0000 C   0  0  0  0  0  0  0  0  0  0  0  0
   25.8528  -19.1774    0.0000 C   0  0  0  0  0  0  0  0  0  0  0  0
   28.2891  -19.1891    0.0000 N   0  0  0  0  0  0  0  0  0  0  0  0
   27.0564  -21.2747    0.0000 C   0  0  0  0  0  0  0  0  0  0  0  0
   25.8587  -17.7753    0.0000 C   0  0  0  0  0  0  0  0  0  0  0  0
   24.6494  -19.8785    0.0000 C   0  0  0  0  0  0  0  0  0  0  0  0
   29.4868  -19.8960    0.0000 C   0  0  0  0  0  0  0  0  0  0  0  0
   28.2949  -17.7870    0.0000 C   0  0  0  0  0  0  0  0  0  0  0  0
   28.2715  -21.9817    0.0000 C   0  0  0  0  0  0  0  0  0  0  0  0
   27.0798  -17.0742    0.0000 C   0  0  0  0  0  0  0  0  0  0  0  0
   24.6494  -17.0685    0.0000 C   0  0  0  0  0  0  0  0  0  0  0  0
   23.4284  -19.1774    0.0000 C   0  0  0  0  0  0  0  0  0  0  0  0
   29.4751  -21.2981    0.0000 C   0  0  0  0  0  0  0  0  0  0  0  0
   28.2540  -23.3779    0.0000 C   0  0  0  0  0  0  0  0  0  0  0  0
   23.4284  -17.7753    0.0000 C   0  0  0  0  0  0  0  0  0  0  0  0
   22.2133  -19.8785    0.0000 O   0  0  0  0  0  0  0  0  0  0  0  0
   30.6785  -22.0049    0.0000 C   0  0  0  0  0  0  0  0  0  0  0  0
   29.4458  -24.0790    0.0000 C   0  0  0  0  0  0  0  0  0  0  0  0
   22.2133  -17.0685    0.0000 O   0  0  0  0  0  0  0  0  0  0  0  0
   30.6610  -23.4013    0.0000 O   0  0  0  0  0  0  0  0  0  0  0  0
   21.0006  -17.7634    0.0000 C   0  0  0  0  0  0  0  0  0  0  0  0
   21.0029  -19.1793    0.0000 C   0  0  0  0  0  0  0  0  0  0  0  0
   31.8941  -21.3150    0.0000 C   0  0  0  0  0  0  0  0  0  0  0  0
  1  2  1  0
  1  3  1  0
  1  4  1  1
  2  5  2  0
  2  6  1  0
  3  7  1  0
  3  8  1  0
  4  9  1  0
  5 10  1  0
  5 11  1  0
  6 12  2  0
  7 13  1  0
 10 14  2  0
 12 15  1  0
 13 16  1  6
 14 17  1  0
 15 18  1  0
 16 19  1  0
 17 20  1  0
  8 11  1  0
  9 13  1  0
 12 14  1  0
 22 21  1  6
 22 23  1  0
 22 24  1  0
 23 25  2  0
 23 26  1  0
 24 27  1  0
 25 28  1  0
 25 29  1  0
 26 30  2  0
 28 31  2  0
 30 32  1  0
 31 33  1  0
 27 29  1  0
 30 31  1  0
 33 34  1  0
  9 21  1  1
 32 35  1  0
 36 37  1  0
 36 38  1  0
 36 39  1  1
 37 40  2  0
 37 41  1  0
 38 42  1  0
 38 43  1  0
 39 44  1  0
 40 45  1  0
 40 46  1  0
 41 47  2  0
 42 48  1  0
 44 49  1  1
 45 50  2  0
 47 51  1  0
 48 52  1  6
 53 49  1  6
 50 54  1  0
 51 55  1  0
 52 56  1  0
 53 57  1  0
 53 58  1  0
 54 59  1  0
 57 60  2  0
 57 61  1  0
 58 62  1  0
 60 63  1  0
 60 64  1  0
 61 65  2  0
 63 66  2  0
 65 67  1  0
 66 68  1  0
 67 69  1  0
 43 46  1  0
 44 48  1  0
 47 50  1  0
 62 64  1  0
 65 66  1  0
 70 71  1  0
 70 72  1  0
 70 73  1  1
 71 74  2  0
 71 75  1  0
 72 76  1  0
 72 77  1  0
 73 78  1  0
 74 79  1  0
 74 80  1  0
 75 81  2  0
 76 82  1  0
 79 83  2  0
 81 84  1  0
 82 85  1  6
 83 86  1  0
 84 87  1  0
 85 88  1  0
 86 89  1  0
 77 80  1  0
 78 82  1  0
 81 83  1  0
 90 91  1  0
 91 92  1  0
 91 93  2  0
 92 94  2  0
 92 95  1  0
 93 96  1  0
 94 97  1  0
 94 98  1  0
 95 99  2  0
 97100  2  0
 99101  1  0
100102  1  0
101103  1  0
 96 98  1  0
 99100  1  0
 78 90  1  1
104105  1  0
104106  1  0
104107  1  1
105108  2  0
105109  1  0
106110  1  0
106111  1  0
107112  1  0
108113  1  0
108114  1  0
109115  2  0
110116  1  0
113117  2  0
115118  1  0
116119  1  6
117120  1  0
118121  1  0
119122  1  0
120123  1  0
111114  1  0
112116  1  0
115117  1  0
124125  1  0
125126  1  0
125127  2  0
126128  2  0
126129  1  0
127130  1  0
128131  1  0
128132  1  0
129133  2  0
131134  2  0
133135  1  0
134136  1  0
135137  1  0
130132  1  0
133134  1  0
112124  1  1
136138  1  0
139141  1  0
140142  2  0
140143  1  0
141144  1  0
142145  1  0
142146  1  0
143147  2  0
146148  2  0
147149  1  0
148150  1  0
144145  1  0
147148  1  0
151152  1  0
151153  1  0
151154  1  6
152155  1  0
152156  1  6
153157  1  1
153158  1  0
154159  2  0
155160  2  0
155161  1  0
162157  1  1
161163  1  0
161164  2  0
162165  1  0
162166  1  0
163167  1  0
165168  1  0
166169  1  0
166170  1  6
168171  1  0
168172  1  1
169173  1  1
171174  1  6
172175  1  0
158160  1  0
169171  1  0
139156  1  6
141176  1  0
139140  1  0
176177  1  0
176178  2  0
179180  1  0
179181  1  0
179182  1  1
180183  2  0
180184  1  0
181185  1  0
181186  1  0
182187  1  0
183188  1  0
183189  1  0
184190  2  0
185191  1  0
187192  1  1
188193  2  0
190194  1  0
191195  1  6
192196  1  0
193197  1  0
194198  1  0
195199  1  0
196200  1  0
196201  2  0
197202  1  0
200203  2  0
200204  1  0
201205  1  0
203206  1  0
203207  1  0
204208  2  0
206209  2  0
208210  1  0
209211  1  0
210212  1  0
211213  1  0
186189  1  0
187191  1  0
190193  1  0
205207  2  0
208209  1  0
215218  2  0
215219  1  0
216220  1  0
216221  1  0
217222  1  0
218223  1  0
218224  1  0
219225  2  0
220226  1  0
222227  1  1
224228  2  0
225229  1  0
226230  1  6
227231  1  0
228232  1  0
221223  1  0
222226  1  0
225228  1  0
231233  2  0
232234  1  0
214215  1  0
229235  1  0
214216  1  0
214217  1  1
230236  1  0
M  END
