 
     RDKit          2D

 80 83  0  0  0  0  0  0  0  0999 V2000
   26.6999  -16.4331    0.0000 C   0  0  0  0  0  0  0  0  0  0  0  0
   26.6999  -17.8571    0.0000 C   0  0  0  0  0  0  0  0  0  0  0  0
   27.8963  -15.7268    0.0000 C   0  0  0  0  0  0  0  0  0  0  0  0
   25.3926  -16.0011    0.0000 N   0  0  0  0  0  0  0  0  0  0  0  0
   27.8963  -18.5398    0.0000 N   0  0  0  0  0  0  0  0  0  0  0  0
   25.3926  -18.2888    0.0000 N   0  0  0  0  0  0  0  0  0  0  0  0
   29.1160  -16.4622    0.0000 N   0  0  0  0  0  0  0  0  0  0  0  0
   27.8963  -14.3495    0.0000 O   0  0  0  0  0  0  0  0  0  0  0  0
   24.5814  -17.1567    0.0000 C   0  0  0  0  0  0  0  0  0  0  0  0
   29.1160  -17.8045    0.0000 C   0  0  0  0  0  0  0  0  0  0  0  0
   27.8963  -19.9696    0.0000 C   0  0  0  0  0  0  0  0  0  0  0  0
   30.3649  -15.7852    0.0000 C   0  0  0  0  0  0  0  0  0  0  0  0
   23.1807  -17.1625    0.0000 Cl  0  0  0  0  0  0  0  0  0  0  0  0
   30.3649  -18.5048    0.0000 O   0  0  0  0  0  0  0  0  0  0  0  0
   16.7797  -17.7374    0.0000 C   0  0  0  0  0  0  0  0  0  0  0  0
   15.5669  -18.4463    0.0000 C   0  0  0  0  0  0  0  0  0  0  0  0
   17.9982  -18.4463    0.0000 C   0  0  0  0  0  0  0  0  0  0  0  0
   16.7854  -16.3373    0.0000 O   0  0  0  0  0  0  0  0  0  0  0  0
   15.5669  -19.8406    0.0000 C   0  0  0  0  0  0  0  0  0  0  0  0
   14.3542  -17.7374    0.0000 C   0  0  0  0  0  0  0  0  0  0  0  0
   17.9924  -19.8406    0.0000 C   0  0  0  0  0  0  0  0  0  0  0  0
   17.9982  -15.6342    0.0000 C   0  0  0  0  0  0  0  0  0  0  0  0
   14.3542  -20.5379    0.0000 C   0  0  0  0  0  0  0  0  0  0  0  0
   13.1414  -18.4463    0.0000 C   0  0  0  0  0  0  0  0  0  0  0  0
   19.2052  -20.5379    0.0000 C   0  0  0  0  0  0  0  0  0  0  0  0
   20.4179  -18.4463    0.0000 C   0  0  0  0  0  0  0  0  0  0  0  0
   17.9982  -14.2339    0.0000 C   0  0  0  0  0  0  0  0  0  0  0  0
   13.1414  -19.8406    0.0000 C   0  0  0  0  0  0  0  0  0  0  0  0
   20.4120  -19.8406    0.0000 C   0  0  0  0  0  0  0  0  0  0  0  0
   19.2169  -13.5308    0.0000 C   0  0  0  0  0  0  0  0  0  0  0  0
   20.4237  -14.2339    0.0000 N   0  0  0  0  0  0  0  0  0  0  0  0
   19.2140  -17.7357    0.0000 C   0  0  0  0  0  0  0  0  0  0  0  0
   21.6404  -13.5378    0.0000 C   0  0  0  0  0  0  0  0  0  0  0  0
   20.4183  -15.6356    0.0000 C   0  0  0  0  0  0  0  0  0  0  0  0
   19.2016  -16.3317    0.0000 C   0  0  0  0  0  0  0  0  0  0  0  0
   34.6276  -16.2463    0.0000 Na  0  0  0  0  0 15  0  0  0  0  0  0
   38.7581  -16.1708    0.0000 O   0  0  0  0  0  0  0  0  0  0  0  0
   22.4700  -16.3800    0.0000 C   0  0  0  0  0  0  0  0  0  0  0  0
   22.4700  -17.7800    0.0000 C   0  0  0  0  0  0  0  0  0  0  0  0
   23.6824  -18.4800    0.0000 C   0  0  0  0  0  0  0  0  0  0  0  0
   24.8949  -17.7800    0.0000 C   0  0  0  0  0  0  0  0  0  0  0  0
   24.8949  -16.3800    0.0000 C   0  0  0  0  0  0  0  0  0  0  0  0
   23.6824  -15.6800    0.0000 C   0  0  0  0  0  0  0  0  0  0  0  0
   26.1260  -15.6690    0.0000 N   0  0  0  0  0  0  0  0  0  0  0  0
   26.1260  -14.2690    0.0000 N   0  0  0  0  0  0  0  0  0  0  0  0
   24.9065  -13.5648    0.0000 C   0  0  0  0  0  0  0  0  0  0  0  0
   27.4575  -16.1016    0.0000 C   0  0  0  0  0  0  0  0  0  0  0  0
   28.2804  -14.9690    0.0000 C   0  0  0  0  0  0  0  0  0  0  0  0
   27.4575  -13.8364    0.0000 C   0  0  0  0  0  0  0  0  0  0  0  0
   29.6800  -14.9690    0.0000 N   0  0  0  0  0  0  0  0  0  0  0  0
   27.8879  -17.4264    0.0000 O   0  0  0  0  0  0  0  0  0  0  0  0
   27.8813  -12.5314    0.0000 C   0  0  0  0  0  0  0  0  0  0  0  0
   30.3752  -13.5548    0.0000 C   0  0  0  0  0  0  0  0  0  0  0  0
   30.3847  -16.1897    0.0000 C   0  0  0  0  0  0  0  0  0  0  0  0
   31.7847  -16.1897    0.0000 S   0  0  0  0  0  0  0  0  0  0  0  0
   33.1847  -16.1897    0.0000 O   0  0  0  0  0  0  0  0  0  0  0  0
   31.7848  -14.7700    0.0000 O   0  0  0  0  0  0  0  0  0  0  0  0
   31.7847  -17.5700    0.0000 O   0  0  0  0  0  0  0  0  0  0  0  0
   26.6722  -25.6957    0.0000 C   0  0  0  0  0  0  0  0  0  0  0  0
   26.6722  -27.0961    0.0000 C   0  0  0  0  0  0  0  0  0  0  0  0
   27.8849  -27.7963    0.0000 C   0  0  0  0  0  0  0  0  0  0  0  0
   29.0978  -27.0961    0.0000 C   0  0  0  0  0  0  0  0  0  0  0  0
   29.0978  -25.6957    0.0000 C   0  0  0  0  0  0  0  0  0  0  0  0
   27.8849  -24.9955    0.0000 C   0  0  0  0  0  0  0  0  0  0  0  0
   30.3292  -24.9845    0.0000 N   0  0  0  0  0  0  0  0  0  0  0  0
   30.3292  -23.5841    0.0000 N   0  0  0  0  0  0  0  0  0  0  0  0
   31.6611  -25.4172    0.0000 C   0  0  0  0  0  0  0  0  0  0  0  0
   32.4843  -24.2843    0.0000 C   0  0  0  0  0  0  0  0  0  0  0  0
   31.6611  -23.1513    0.0000 C   0  0  0  0  0  0  0  0  0  0  0  0
   29.1912  -22.7571    0.0000 C   0  0  0  0  0  0  0  0  0  0  0  0
   32.0850  -21.8460    0.0000 C   0  0  0  0  0  0  0  0  0  0  0  0
   32.0916  -26.7424    0.0000 O   0  0  0  0  0  0  0  0  0  0  0  0
   33.6783  -25.0139    0.0000 N   0  0  0  0  0  0  0  0  0  0  0  0
   34.9044  -24.3380    0.0000 C   0  0  0  0  0  0  0  0  0  0  0  0
   36.1027  -25.0619    0.0000 C   0  0  0  0  0  0  0  0  0  0  0  0
   37.3288  -24.3860    0.0000 N   0  0  0  0  0  0  0  0  0  0  0  0
   34.9321  -22.9383    0.0000 O   0  0  0  0  0  0  0  0  0  0  0  0
   36.1452  -26.4518    0.0000 C   0  0  0  0  0  0  0  0  0  0  0  0
   38.5105  -25.1000    0.0000 C   0  0  0  0  0  0  0  0  0  0  0  0
   37.3566  -22.9865    0.0000 C   0  0  0  0  0  0  0  0  0  0  0  0
  1  4  1  0
  2  5  1  0
  2  6  1  0
  3  7  1  0
  3  8  2  0
  4  9  1  0
  5 10  1  0
  5 11  1  0
  7 12  1  0
  9 13  1  0
 10 14  2  0
  6  9  2  0
  7 10  1  0
  1  2  2  0
  1  3  1  0
 15 16  1  0
 15 17  1  0
 15 18  1  0
 16 19  2  0
 16 20  1  0
 17 21  2  0
 17 32  1  0
 18 22  1  0
 19 23  1  0
 20 24  2  0
 21 25  1  0
 32 26  2  0
 22 27  1  0
 23 28  2  0
 25 29  2  0
 27 30  1  0
 30 31  1  0
 24 28  1  0
 26 29  1  0
 22 35  1  0
 31 33  1  0
 31 34  1  0
 34 35  1  0
 38 39  2  0
 39 40  1  0
 40 41  2  0
 41 42  1  0
 42 43  2  0
 38 43  1  0
 42 44  1  0
 44 45  1  0
 45 46  1  0
 44 47  1  0
 47 48  1  0
 48 49  2  0
 45 49  1  0
 48 50  1  0
 47 51  2  0
 49 52  1  0
 50 53  1  0
 50 54  1  0
 54 55  1  0
 55 56  1  0
 55 57  2  0
 55 58  2  0
 59 60  2  0
 60 61  1  0
 61 62  2  0
 62 63  1  0
 63 64  2  0
 59 64  1  0
 63 65  1  0
 65 66  1  0
 65 67  1  0
 67 68  1  0
 68 69  2  0
 66 69  1  0
 66 70  1  0
 69 71  1  0
 67 72  2  0
 68 73  1  0
 73 74  1  0
 74 75  1  0
 75 76  1  0
 74 77  2  0
 75 78  1  0
 76 79  1  0
 76 80  1  0
M  CHG  2  36   1  56  -1
M  END
