 
     RDKit          2D

113121  0  1  1  0  0  0  0  0999 V2000
   22.1020   -5.1950    0.0000 P   0  0  0  0  0  0  0  0  0  0  0  0
   23.5031   -5.1950    0.0000 O   0  0  0  0  0  0  0  0  0  0  0  0
   24.4958   -6.1805    0.0000 P   0  0  0  0  0  0  0  0  0  0  0  0
   24.4958   -7.5816    0.0000 O   0  0  0  0  0  0  0  0  0  0  0  0
   23.5031   -8.5743    0.0000 P   0  0  0  0  0  0  0  0  0  0  0  0
   22.1020   -8.5743    0.0000 O   0  0  0  0  0  0  0  0  0  0  0  0
   21.1163   -7.5816    0.0000 P   0  0  0  0  0  0  0  0  0  0  0  0
   21.1163   -6.1805    0.0000 O   0  0  0  0  0  0  0  0  0  0  0  0
   20.7020   -5.1950    0.0000 O   0  0  0  0  0  0  0  0  0  0  0  0
   24.4958   -4.7805    0.0000 O   0  0  0  0  0  0  0  0  0  0  0  0
   25.8998   -6.1806    0.0000 O   0  0  0  0  0  0  0  0  0  0  0  0
   22.1020   -3.7950    0.0000 O   0  0  0  0  0  0  0  0  0  0  0  0
   23.5031   -9.9743    0.0000 O   0  0  0  0  0  0  0  0  0  0  0  0
   24.9031   -8.5743    0.0000 O   0  0  0  0  0  0  0  0  0  0  0  0
   21.1163   -8.9816    0.0000 O   0  0  0  0  0  0  0  0  0  0  0  0
   19.7163   -7.5816    0.0000 O   0  0  0  0  0  0  0  0  0  0  0  0
    9.7319   -7.2905    0.0000 C   0  0  0  0  0  0  0  0  0  0  0  0
    9.7601   -8.6392    0.0000 C   0  0  0  0  0  0  0  0  0  0  0  0
   10.9143   -6.6305    0.0000 C   0  0  0  0  0  0  0  0  0  0  0  0
    8.5725   -6.6018    0.0000 C   0  0  0  0  0  0  0  0  0  0  0  0
    8.4739   -9.3050    0.0000 C   0  0  0  0  0  0  0  0  0  0  0  0
   10.8742   -9.3336    0.0000 C   0  0  0  0  0  0  0  0  0  0  0  0
   12.0678   -7.3249    0.0000 C   0  0  0  0  0  0  0  0  0  0  0  0
    7.3202   -7.2676    0.0000 C   0  0  0  0  0  0  0  0  0  0  0  0
    7.3788   -8.6219    0.0000 C   0  0  0  0  0  0  0  0  0  0  0  0
    8.4682  -10.6652    0.0000 O   0  0  0  0  0  0  0  0  0  0  0  0
   12.0563   -8.6737    0.0000 C   0  0  0  0  0  0  0  0  0  0  0  0
   10.8265  -10.6939    0.0000 O   0  0  0  0  0  0  0  0  0  0  0  0
   13.2618   -6.6650    0.0000 O   0  0  0  0  0  0  0  0  0  0  0  0
    6.2195   -6.5845    0.0000 C   0  0  0  0  0  0  0  0  0  0  0  0
    6.2080   -9.2992    0.0000 C   0  0  0  0  0  0  0  0  0  0  0  0
   13.2215   -9.3739    0.0000 C   0  0  0  0  0  0  0  0  0  0  0  0
    5.0485   -7.2562    0.0000 C   0  0  0  0  0  0  0  0  0  0  0  0
    5.0428   -8.6162    0.0000 C   0  0  0  0  0  0  0  0  0  0  0  0
    6.2080  -10.6536    0.0000 O   0  0  0  0  0  0  0  0  0  0  0  0
   14.4096   -8.7081    0.0000 N   0  0  0  0  0  0  0  0  0  0  0  0
   13.2497  -10.7340    0.0000 O   0  0  0  0  0  0  0  0  0  0  0  0
    3.8603   -6.5788    0.0000 C   0  0  0  0  0  0  0  0  0  0  0  0
    3.8662   -9.2935    0.0000 C   0  0  0  0  0  0  0  0  0  0  0  0
    2.6895   -7.2618    0.0000 C   0  0  0  0  0  0  0  0  0  0  0  0
    2.6895   -8.6219    0.0000 C   0  0  0  0  0  0  0  0  0  0  0  0
    3.8662  -10.6536    0.0000 O   0  0  0  0  0  0  0  0  0  0  0  0
    6.2247   -4.8715    0.0000 C   0  0  0  0  0  0  0  0  0  0  0  0
   10.9367   -4.4417    0.0000 N   0  0  0  0  0  0  0  0  0  0  0  0
   12.1369   -3.7748    0.0000 C   0  0  0  0  0  0  0  0  0  0  0  0
    9.7589   -3.7358    0.0000 C   0  0  0  0  0  0  0  0  0  0  0  0
    8.5624   -4.8852    0.0000 O   0  0  0  0  0  0  0  0  0  0  0  0
    9.7067  -10.0102    0.0000 O   0  0  0  0  0  0  0  0  0  0  0  0
   26.6000  -10.1500    0.0000 Na  0  0  0  0  0 15  0  0  0  0  0  0
    9.7319   -7.2905    0.0000 C   0  0  0  0  0  0  0  0  0  0  0  0
    9.7601   -8.6392    0.0000 C   0  0  0  0  0  0  0  0  0  0  0  0
    8.4739   -9.3050    0.0000 C   0  0  0  0  0  0  0  0  0  0  0  0
    7.3788   -8.6219    0.0000 C   0  0  0  0  0  0  0  0  0  0  0  0
    6.2080   -9.2992    0.0000 C   0  0  0  0  0  0  0  0  0  0  0  0
    5.0428   -8.6162    0.0000 C   0  0  0  0  0  0  0  0  0  0  0  0
    3.8662   -9.2935    0.0000 C   0  0  0  0  0  0  0  0  0  0  0  0
    2.6895   -8.6219    0.0000 C   0  0  0  0  0  0  0  0  0  0  0  0
    2.6895   -7.2618    0.0000 C   0  0  0  0  0  0  0  0  0  0  0  0
    3.8603   -6.5788    0.0000 C   0  0  0  0  0  0  0  0  0  0  0  0
    5.0485   -7.2562    0.0000 C   0  0  0  0  0  0  0  0  0  0  0  0
    6.2195   -6.5845    0.0000 C   0  0  0  0  0  0  0  0  0  0  0  0
    7.3202   -7.2676    0.0000 C   0  0  0  0  0  0  0  0  0  0  0  0
    8.5725   -6.6018    0.0000 C   0  0  0  0  0  0  0  0  0  0  0  0
    8.5624   -4.8852    0.0000 O   0  0  0  0  0  0  0  0  0  0  0  0
    6.2247   -4.8715    0.0000 C   0  0  0  0  0  0  0  0  0  0  0  0
    3.8662  -10.6536    0.0000 O   0  0  0  0  0  0  0  0  0  0  0  0
    6.2080  -10.6536    0.0000 O   0  0  0  0  0  0  0  0  0  0  0  0
    8.4682  -10.6652    0.0000 O   0  0  0  0  0  0  0  0  0  0  0  0
   10.8742   -9.3336    0.0000 C   0  0  0  0  0  0  0  0  0  0  0  0
   12.0563   -8.6737    0.0000 C   0  0  0  0  0  0  0  0  0  0  0  0
   13.2215   -9.3739    0.0000 C   0  0  0  0  0  0  0  0  0  0  0  0
   14.4096   -8.7081    0.0000 N   0  0  0  0  0  0  0  0  0  0  0  0
   13.2497  -10.7340    0.0000 O   0  0  0  0  0  0  0  0  0  0  0  0
   12.0678   -7.3249    0.0000 C   0  0  0  0  0  0  0  0  0  0  0  0
   13.2618   -6.6650    0.0000 O   0  0  0  0  0  0  0  0  0  0  0  0
   10.9143   -6.6305    0.0000 C   0  0  0  0  0  0  0  0  0  0  0  0
   10.9367   -4.4417    0.0000 N   0  0  0  0  0  0  0  0  0  0  0  0
   12.1369   -3.7748    0.0000 C   0  0  0  0  0  0  0  0  0  0  0  0
    9.7589   -3.7358    0.0000 C   0  0  0  0  0  0  0  0  0  0  0  0
   10.8265  -10.6939    0.0000 O   0  0  0  0  0  0  0  0  0  0  0  0
    9.7067  -10.0102    0.0000 O   0  0  0  0  0  0  0  0  0  0  0  0
    9.7319   -7.2905    0.0000 C   0  0  0  0  0  0  0  0  0  0  0  0
    9.7601   -8.6392    0.0000 C   0  0  0  0  0  0  0  0  0  0  0  0
    8.4739   -9.3050    0.0000 C   0  0  0  0  0  0  0  0  0  0  0  0
    7.3788   -8.6219    0.0000 C   0  0  0  0  0  0  0  0  0  0  0  0
    6.2080   -9.2992    0.0000 C   0  0  0  0  0  0  0  0  0  0  0  0
    5.0428   -8.6162    0.0000 C   0  0  0  0  0  0  0  0  0  0  0  0
    3.8662   -9.2935    0.0000 C   0  0  0  0  0  0  0  0  0  0  0  0
    2.6895   -8.6219    0.0000 C   0  0  0  0  0  0  0  0  0  0  0  0
    2.6895   -7.2618    0.0000 C   0  0  0  0  0  0  0  0  0  0  0  0
    3.8603   -6.5788    0.0000 C   0  0  0  0  0  0  0  0  0  0  0  0
    5.0485   -7.2562    0.0000 C   0  0  0  0  0  0  0  0  0  0  0  0
    6.2195   -6.5845    0.0000 C   0  0  0  0  0  0  0  0  0  0  0  0
    7.3202   -7.2676    0.0000 C   0  0  0  0  0  0  0  0  0  0  0  0
    8.5725   -6.6018    0.0000 C   0  0  0  0  0  0  0  0  0  0  0  0
    8.5624   -4.8852    0.0000 O   0  0  0  0  0  0  0  0  0  0  0  0
    6.2247   -4.8715    0.0000 C   0  0  0  0  0  0  0  0  0  0  0  0
    3.8662  -10.6536    0.0000 O   0  0  0  0  0  0  0  0  0  0  0  0
    6.2080  -10.6536    0.0000 O   0  0  0  0  0  0  0  0  0  0  0  0
    8.4682  -10.6652    0.0000 O   0  0  0  0  0  0  0  0  0  0  0  0
   10.8742   -9.3336    0.0000 C   0  0  0  0  0  0  0  0  0  0  0  0
   12.0563   -8.6737    0.0000 C   0  0  0  0  0  0  0  0  0  0  0  0
   13.2215   -9.3739    0.0000 C   0  0  0  0  0  0  0  0  0  0  0  0
   14.4096   -8.7081    0.0000 N   0  0  0  0  0  0  0  0  0  0  0  0
   13.2497  -10.7340    0.0000 O   0  0  0  0  0  0  0  0  0  0  0  0
   12.0678   -7.3249    0.0000 C   0  0  0  0  0  0  0  0  0  0  0  0
   13.2618   -6.6650    0.0000 O   0  0  0  0  0  0  0  0  0  0  0  0
   10.9143   -6.6305    0.0000 C   0  0  0  0  0  0  0  0  0  0  0  0
   10.9367   -4.4417    0.0000 N   0  0  0  0  0  0  0  0  0  0  0  0
   12.1369   -3.7748    0.0000 C   0  0  0  0  0  0  0  0  0  0  0  0
    9.7589   -3.7358    0.0000 C   0  0  0  0  0  0  0  0  0  0  0  0
   10.8265  -10.6939    0.0000 O   0  0  0  0  0  0  0  0  0  0  0  0
    9.7067  -10.0102    0.0000 O   0  0  0  0  0  0  0  0  0  0  0  0
  1  2  1  0
  2  3  1  0
  3  4  1  0
  4  5  1  0
  5  6  1  0
  6  7  1  0
  7  8  1  0
  8  1  1  0
  1  9  2  0
  3 10  2  0
  3 11  1  0
  1 12  1  0
  5 13  1  0
  5 14  2  0
  7 15  2  0
  7 16  1  0
 21 25  2  0
 21 26  1  0
 22 27  1  0
 22 28  2  0
 23 29  1  0
 24 30  1  0
 25 31  1  0
 27 32  1  0
 30 33  1  0
 31 34  1  0
 31 35  2  0
 32 36  1  0
 32 37  2  0
 33 38  2  0
 34 39  2  0
 38 40  1  0
 39 41  1  0
 39 42  1  0
 23 27  2  0
 24 25  1  1
 33 34  1  0
 40 41  2  0
 30 43  1  6
 19 44  1  6
 17 18  1  0
 44 45  1  0
 17 19  1  1
 44 46  1  0
 17 20  1  0
 18 21  1  0
 18 22  1  0
 20 47  1  6
 19 23  1  0
 18 48  1  6
 20 24  1  0
 52 53  2  0
 52 68  1  0
 69 70  1  0
 69 80  2  0
 74 75  1  0
 62 61  1  0
 53 54  1  0
 70 71  1  0
 61 60  1  0
 54 55  1  0
 54 67  2  0
 71 72  1  0
 71 73  2  0
 60 59  2  0
 55 56  2  0
 59 58  1  0
 56 57  1  0
 56 66  1  0
 74 70  2  0
 62 53  1  1
 60 55  1  0
 58 57  2  0
 61 65  1  6
 76 77  1  6
 50 51  1  0
 77 78  1  0
 50 76  1  1
 77 79  1  0
 50 63  1  0
 51 52  1  0
 51 69  1  0
 63 64  1  6
 76 74  1  0
 51 81  1  6
 63 62  1  0
 84 85  2  0
 84100  1  0
101102  1  0
101112  2  0
106107  1  0
 94 93  1  0
 85 86  1  0
102103  1  0
 93 92  1  0
 86 87  1  0
 86 99  2  0
103104  1  0
103105  2  0
 92 91  2  0
 87 88  2  0
 91 90  1  0
 88 89  1  0
 88 98  1  0
106102  2  0
 94 85  1  1
 92 87  1  0
 90 89  2  0
 93 97  1  6
108109  1  6
 82 83  1  0
109110  1  0
 82108  1  1
109111  1  0
 82 95  1  0
 83 84  1  0
 83101  1  0
 95 96  1  6
108106  1  0
 83113  1  6
 95 94  1  0
M  CHG  2  13  -1  49   1
M  STY  1   1 MUL
M  SLB  1   1   1
M  SCN  1   1 HT 
M  SAL   1 15  17  18  19  20  21  22  23  24  25  26  27  28  29  30  31
M  SAL   1 15  32  33  34  35  36  37  38  39  40  41  42  43  44  45  46
M  SAL   1 15  47  48  50  51  52  53  54  55  56  57  58  59  60  61  62
M  SAL   1 15  63  64  65  66  67  68  69  70  71  72  73  74  75  76  77
M  SAL   1 15  78  79  80  81  82  83  84  85  86  87  88  89  90  91  92
M  SAL   1 15  93  94  95  96  97  98  99 100 101 102 103 104 105 106 107
M  SAL   1  6 108 109 110 111 112 113
M  SPA   1 15  17  18  21  25  31  34  39  41  40  38  33  30  24  20  47
M  SPA   1 15  43  42  35  26  22  27  32  36  37  23  29  19  44  45  46
M  SPA   1  2  28  48
M  SDI   1  4    2.1000  -11.8300    2.1000   -2.3800
M  SDI   1  4   16.7300   -2.3800   16.7300  -11.8300
M  SMT   1 3
M  END
