 
     RDKit          2D

 25 25  0  0  0  0  0  0  0  0999 V2000
   20.2981  -15.8105    0.0000 C   0  0  0  0  0  0  0  0  0  0  0  0
   21.5226  -16.5029    0.0000 C   0  0  0  0  0  0  0  0  0  0  0  0
   19.0928  -16.5029    0.0000 C   0  0  0  0  0  0  0  0  0  0  0  0
   20.2981  -14.6227    0.0000 C   0  0  0  0  0  0  0  0  0  0  0  0
   21.5226  -17.9133    0.0000 C   0  0  0  0  0  0  0  0  0  0  0  0
   22.7278  -15.8040    0.0000 O   0  0  0  0  0  0  0  0  0  0  0  0
   19.0928  -17.9133    0.0000 C   0  0  0  0  0  0  0  0  0  0  0  0
   21.5033  -13.9240    0.0000 O   0  0  0  0  0  0  0  0  0  0  0  0
   19.0863  -13.9304    0.0000 O   0  0  0  0  0  0  0  0  0  0  0  0
   20.2981  -18.6250    0.0000 C   0  0  0  0  0  0  0  0  0  0  0  0
   23.9396  -16.4964    0.0000 C   0  0  0  0  0  0  0  0  0  0  0  0
   25.1450  -15.7977    0.0000 C   0  0  0  0  0  0  0  0  0  0  0  0
   23.9396  -17.8942    0.0000 O   0  0  0  0  0  0  0  0  0  0  0  0
   36.8309  -12.5307    0.0000 C   0  0  0  0  0  0  0  0  0  0  0  0
   37.2787  -13.8509    0.0000 C   0  0  0  0  0  0  0  0  0  0  0  0
   37.9650  -11.7163    0.0000 O   0  0  0  0  0  0  0  0  0  0  0  0
   38.6804  -13.8509    0.0000 C   0  0  0  0  0  0  0  0  0  0  0  0
   39.0992  -12.5481    0.0000 C   0  0  0  0  0  0  0  0  0  0  0  0
   39.5121  -14.9793    0.0000 O   0  0  0  0  0  0  0  0  0  0  0  0
   40.0821  -11.5535    0.0000 O   0  0  0  0  0  0  0  0  0  0  0  0
   35.6242  -11.8340    0.0000 C   0  0  0  0  0  0  0  0  0  0  0  0
   34.4173  -12.5307    0.0000 C   0  0  0  0  0  0  0  0  0  0  0  0
   36.4634  -14.9886    0.0000 O   0  0  0  0  0  0  0  0  0  0  0  0
   35.6239  -10.4238    0.0000 O   0  0  0  0  0  0  0  0  0  0  0  0
   33.1846  -11.8191    0.0000 O   0  0  0  0  0  0  0  0  0  0  0  0
  1  2  2  0
  1  3  1  0
  1  4  1  0
  2  5  1  0
  2  6  1  0
  3  7  2  0
  4  8  1  0
  4  9  2  0
  5 10  2  0
  6 11  1  0
 11 12  1  0
 11 13  2  0
  7 10  1  0
 14 15  1  0
 14 16  1  1
 15 17  2  0
 16 18  1  0
 17 19  1  0
 18 20  2  0
 17 18  1  0
 14 21  1  0
 21 22  1  0
 15 23  1  0
 21 24  1  6
 22 25  1  0
M  END
