 
     RDKit          2D

 58 58  0  0  0  0  0  0  0  0999 V2000
    7.4200  -19.5300    0.0000 C   0  0  0  0  0  0  0  0  0  0  0  0
    7.4200  -20.9300    0.0000 C   0  0  0  0  0  0  0  0  0  0  0  0
    8.6324  -21.6300    0.0000 C   0  0  0  0  0  0  0  0  0  0  0  0
    9.8449  -20.9300    0.0000 C   0  0  0  0  0  0  0  0  0  0  0  0
    9.8449  -19.5300    0.0000 C   0  0  0  0  0  0  0  0  0  0  0  0
    8.6324  -18.8300    0.0000 C   0  0  0  0  0  0  0  0  0  0  0  0
   11.0760  -18.8190    0.0000 N   0  0  0  0  0  0  0  0  0  0  0  0
   11.0760  -17.4190    0.0000 N   0  0  0  0  0  0  0  0  0  0  0  0
   12.4075  -19.2516    0.0000 C   0  0  0  0  0  0  0  0  0  0  0  0
   13.2304  -18.1190    0.0000 C   0  0  0  0  0  0  0  0  0  0  0  0
   12.4075  -16.9864    0.0000 C   0  0  0  0  0  0  0  0  0  0  0  0
    9.9383  -16.5923    0.0000 C   0  0  0  0  0  0  0  0  0  0  0  0
   12.8313  -15.6814    0.0000 C   0  0  0  0  0  0  0  0  0  0  0  0
   12.8379  -20.5764    0.0000 O   0  0  0  0  0  0  0  0  0  0  0  0
   14.6300  -18.1190    0.0000 C   0  0  0  0  0  0  0  0  0  0  0  0
   15.3252  -16.9148    0.0000 C   0  0  0  0  0  0  0  0  0  0  0  0
   15.3347  -19.3397    0.0000 C   0  0  0  0  0  0  0  0  0  0  0  0
   10.5924  -12.7400    0.0000 N   0  0  0  0  0  0  0  0  0  0  0  0
   11.8049  -12.0400    0.0000 C   0  0  0  0  0  0  0  0  0  0  0  0
   13.0173  -12.7400    0.0000 N   0  0  0  0  0  0  0  0  0  0  0  0
   14.2297  -12.0400    0.0000 C   0  0  0  0  0  0  0  0  0  0  0  0
   15.4422  -12.7400    0.0000 C   0  0  0  0  0  0  0  0  0  0  0  0
   16.6546  -12.0400    0.0000 C   0  0  0  0  0  0  0  0  0  0  0  0
   17.8670  -12.7400    0.0000 C   0  0  0  0  0  0  0  0  0  0  0  0
   19.0795  -12.0400    0.0000 C   0  0  0  0  0  0  0  0  0  0  0  0
   11.8049  -10.6402    0.0000 O   0  0  0  0  0  0  0  0  0  0  0  0
   14.2297  -10.6401    0.0000 O   0  0  0  0  0  0  0  0  0  0  0  0
   15.4422  -14.1397    0.0000 C   0  0  0  0  0  0  0  0  0  0  0  0
   16.6754  -14.8520    0.0000 C   0  0  0  0  0  0  0  0  0  0  0  0
   14.2506  -14.8278    0.0000 C   0  0  0  0  0  0  0  0  0  0  0  0
   25.7820  -18.4927    0.0000 C   0  0  0  0  0  0  0  0  0  0  0  0
   25.7820  -19.8967    0.0000 C   0  0  0  0  0  0  0  0  0  0  0  0
   24.5704  -17.7937    0.0000 C   0  0  0  0  0  0  0  0  0  0  0  0
   26.9995  -17.7996    0.0000 N   0  0  0  0  0  0  0  0  0  0  0  0
   24.5704  -20.5957    0.0000 C   0  0  0  0  0  0  0  0  0  0  0  0
   23.3587  -18.4927    0.0000 C   0  0  0  0  0  0  0  0  0  0  0  0
   28.2112  -18.4927    0.0000 C   0  0  0  0  0  0  0  0  0  0  0  0
   23.3587  -19.8967    0.0000 C   0  0  0  0  0  0  0  0  0  0  0  0
   29.4169  -17.7996    0.0000 C   0  0  0  0  0  0  0  0  0  0  0  0
   28.2112  -19.8967    0.0000 O   0  0  0  0  0  0  0  0  0  0  0  0
   22.1412  -20.6014    0.0000 O   0  0  0  0  0  0  0  0  0  0  0  0
   20.9296  -19.8967    0.0000 C   0  0  0  0  0  0  0  0  0  0  0  0
   19.7238  -20.6014    0.0000 C   0  0  0  0  0  0  0  0  0  0  0  0
   24.1379  -11.5446    0.0000 O   0  0  0  0  0  0  0  0  0  0  0  0
   16.6622  -10.8171    0.0000 C   0  0  0  0  0  0  0  0  0  0  0  0
   16.6622  -12.2416    0.0000 C   0  0  0  0  0  0  0  0  0  0  0  0
   17.8649  -10.1105    0.0000 C   0  0  0  0  0  0  0  0  0  0  0  0
   15.3601  -10.3850    0.0000 N   0  0  0  0  0  0  0  0  0  0  0  0
   17.8649  -12.9248    0.0000 N   0  0  0  0  0  0  0  0  0  0  0  0
   15.3601  -12.6737    0.0000 N   0  0  0  0  0  0  0  0  0  0  0  0
   19.0852  -10.8462    0.0000 N   0  0  0  0  0  0  0  0  0  0  0  0
   17.8649   -8.7325    0.0000 O   0  0  0  0  0  0  0  0  0  0  0  0
   14.5428  -11.5409    0.0000 C   0  0  0  0  0  0  0  0  0  0  0  0
   19.0852  -12.1892    0.0000 C   0  0  0  0  0  0  0  0  0  0  0  0
   17.8649  -14.3553    0.0000 C   0  0  0  0  0  0  0  0  0  0  0  0
   20.3055  -10.1632    0.0000 C   0  0  0  0  0  0  0  0  0  0  0  0
   20.3347  -12.8898    0.0000 O   0  0  0  0  0  0  0  0  0  0  0  0
   14.9204   -9.0467    0.0000 C   0  0  0  0  0  0  0  0  0  0  0  0
  1  2  2  0
  2  3  1  0
  3  4  2  0
  4  5  1  0
  5  6  2  0
  1  6  1  0
  5  7  1  0
  7  8  1  0
  7  9  1  0
  9 10  1  0
 10 11  2  0
  8 11  1  0
  8 12  1  0
 11 13  1  0
  9 14  2  0
 10 15  1  0
 15 16  1  0
 15 17  1  0
 18 19  1  0
 19 20  1  0
 20 21  1  0
 21 22  1  0
 22 23  1  0
 23 24  1  0
 24 25  2  0
 19 26  2  0
 21 27  2  0
 22 28  1  0
 28 29  1  0
 28 30  1  0
 31 32  2  0
 31 33  1  0
 31 34  1  0
 32 35  1  0
 33 36  2  0
 34 37  1  0
 35 38  2  0
 37 39  1  0
 37 40  2  0
 38 41  1  0
 41 42  1  0
 42 43  1  0
 36 38  1  0
 45 46  2  0
 45 47  1  0
 45 48  1  0
 46 49  1  0
 46 50  1  0
 47 51  1  0
 47 52  2  0
 48 53  1  0
 49 54  1  0
 49 55  1  0
 51 56  1  0
 54 57  2  0
 50 53  2  0
 51 54  1  0
 48 58  1  0
M  END
