 
     RDKit          2D

 28 23  0  0  0  0  0  0  0  0999 V2000
   20.2981  -15.8105    0.0000 C   0  0  0  0  0  0  0  0  0  0  0  0
   21.5226  -16.5029    0.0000 C   0  0  0  0  0  0  0  0  0  0  0  0
   19.0928  -16.5029    0.0000 C   0  0  0  0  0  0  0  0  0  0  0  0
   20.2981  -14.6227    0.0000 C   0  0  0  0  0  0  0  0  0  0  0  0
   21.5226  -17.9133    0.0000 C   0  0  0  0  0  0  0  0  0  0  0  0
   22.7278  -15.8040    0.0000 O   0  0  0  0  0  0  0  0  0  0  0  0
   19.0928  -17.9133    0.0000 C   0  0  0  0  0  0  0  0  0  0  0  0
   21.5033  -13.9240    0.0000 O   0  0  0  0  0  0  0  0  0  0  0  0
   19.0863  -13.9304    0.0000 O   0  0  0  0  0  0  0  0  0  0  0  0
   20.2981  -18.6250    0.0000 C   0  0  0  0  0  0  0  0  0  0  0  0
   23.9396  -16.4964    0.0000 C   0  0  0  0  0  0  0  0  0  0  0  0
   25.1450  -15.7977    0.0000 C   0  0  0  0  0  0  0  0  0  0  0  0
   23.9396  -17.8942    0.0000 O   0  0  0  0  0  0  0  0  0  0  0  0
   31.3667  -17.5725    0.0000 C   0  0  0  0  0  0  0  0  0  0  0  0
   31.3597  -16.1725    0.0000 O   0  0  0  0  0  0  0  0  0  0  0  0
   30.1579  -18.2786    0.0000 O   0  0  0  0  0  0  0  0  0  0  0  0
   32.5827  -18.2663    0.0000 O   0  0  0  0  0  0  0  0  0  0  0  0
   26.8803  -17.0803    0.0000 Mg  0  0  0  0  0 15  0  0  0  0  0  0
   36.4000  -17.1500    0.0000 O   0  0  0  0  0  0  0  0  0  0  0  0
   25.3674  -15.8235    0.0000 Al  0  0  0  0  0  3  0  0  0  0  0  0
   25.3603  -14.4220    0.0000 O   0  0  0  0  0  0  0  0  0  0  0  0
   24.1561  -16.5340    0.0000 O   0  0  0  0  0  0  0  0  0  0  0  0
   26.5785  -16.5218    0.0000 O   0  0  0  0  0  0  0  0  0  0  0  0
   27.7830  -15.8164    0.0000 C   0  0  0  0  0  0  0  0  0  0  0  0
   28.9944  -16.5137    0.0000 C   0  0  0  0  0  0  0  0  0  0  0  0
   30.2058  -15.8095    0.0000 N   0  0  0  0  0  0  0  0  0  0  0  0
   27.7779  -14.4150    0.0000 O   0  0  0  0  0  0  0  0  0  0  0  0
   34.9096  -15.4002    0.0000 O   0  0  0  0  0  0  0  0  0  0  0  0
  1  2  2  0
  1  3  1  0
  1  4  1  0
  2  5  1  0
  2  6  1  0
  3  7  2  0
  4  8  1  0
  4  9  2  0
  5 10  2  0
  6 11  1  0
 11 12  1  0
 11 13  2  0
  7 10  1  0
 14 16  1  0
 14 17  1  0
 14 15  2  0
 20 21  1  0
 23 24  1  0
 24 25  1  0
 20 22  1  0
 25 26  1  0
 24 27  2  0
 20 23  1  0
M  CHG  3  16  -1  17  -1  18   2
M  END
