8029-39-8.mol
     RDKit          2D

 38 40  0  0  0  0  0  0  0  0999 V2000
    2.1103   -1.9096    0.0000 C   0  0  0  0  0  0  0  0  0  0  0  0
    2.5228   -1.1951    0.0000 C   0  0  0  0  0  0  0  0  0  0  0  0
    2.1103   -0.4806    0.0000 C   0  0  0  0  0  0  0  0  0  0  0  0
    2.5228    0.2338    0.0000 C   0  0  0  0  0  0  0  0  0  0  0  0
    2.5228   -2.6240    0.0000 O   0  0  0  0  0  0  0  0  0  0  0  0
    1.2853   -1.9096    0.0000 N   0  0  0  0  0  0  0  0  0  0  0  0
    3.3478   -1.1951    0.0000 O   0  0  0  0  0  0  0  0  0  0  0  0
    0.8728   -1.1951    0.0000 C   0  0  0  0  0  0  0  0  0  0  0  0
    0.0478   -1.1951    0.0000 C   0  0  0  0  0  0  0  0  0  0  0  0
   -0.3647   -0.4806    0.0000 C   0  0  0  0  0  0  0  0  0  0  0  0
    0.0478    0.2338    0.0000 C   0  0  0  0  0  0  0  0  0  0  0  0
    0.8728    0.2338    0.0000 C   0  0  0  0  0  0  0  0  0  0  0  0
    1.2853   -0.4806    0.0000 C   0  0  0  0  0  0  0  0  0  0  0  0
   -0.3647   -1.9096    0.0000 O   0  0  0  0  0  0  0  0  0  0  0  0
   -1.1897   -0.4806    0.0000 O   0  0  0  0  0  0  0  0  0  0  0  0
   -1.2666   -1.9488    0.0000 O   0  0  0  0  0  0  0  0  0  0  0  0
   -1.6022   -1.1951    0.0000 C   0  0  0  0  0  0  0  0  0  0  0  0
   -2.4226   -1.2813    0.0000 C   0  0  0  0  0  0  0  0  0  0  0  0
   -2.5942   -2.0883    0.0000 C   0  0  0  0  0  0  0  0  0  0  0  0
   -1.8797   -2.5008    0.0000 C   0  0  0  0  0  0  0  0  0  0  0  0
   -1.7935   -3.3213    0.0000 C   0  0  0  0  0  0  0  0  0  0  0  0
   -2.4609   -3.8062    0.0000 O   0  0  0  0  0  0  0  0  0  0  0  0
   -3.3478   -2.4239    0.0000 O   0  0  0  0  0  0  0  0  0  0  0  0
   -2.9747   -0.6682    0.0000 O   0  0  0  0  0  0  0  0  0  0  0  0
   -0.3647    0.9483    0.0000 O   0  0  0  0  0  0  0  0  0  0  0  0
    0.8728    1.6628    0.0000 O   0  0  0  0  0  0  0  0  0  0  0  0
    0.0478    1.6628    0.0000 C   0  0  0  0  0  0  0  0  0  0  0  0
   -0.3647    2.3773    0.0000 C   0  0  0  0  0  0  0  0  0  0  0  0
    0.0478    3.0917    0.0000 C   0  0  0  0  0  0  0  0  0  0  0  0
    0.8728    3.0917    0.0000 C   0  0  0  0  0  0  0  0  0  0  0  0
    1.2853    2.3773    0.0000 C   0  0  0  0  0  0  0  0  0  0  0  0
    1.2853    3.8062    0.0000 O   0  0  0  0  0  0  0  0  0  0  0  0
   -0.3647    3.8062    0.0000 O   0  0  0  0  0  0  0  0  0  0  0  0
    2.1103    2.3773    0.0000 C   0  0  0  0  0  0  0  0  0  0  0  0
    2.5228    3.0917    0.0000 N   0  0  0  0  0  0  0  0  0  0  0  0
   -1.1897    2.3773    0.0000 N   0  0  0  0  0  0  0  0  0  0  0  0
    1.2853    0.9483    0.0000 N   0  0  0  0  0  0  0  0  0  0  0  0
    2.1103    0.9483    0.0000 N   0  0  0  0  0  0  0  0  0  0  0  0
  1  2  1  0
  2  3  1  0
  3  4  1  0
  1  5  2  0
  1  6  1  0
  2  7  1  0
  8  9  1  0
  9 10  1  0
 10 11  1  0
 11 12  1  0
 12 13  1  0
  8 13  1  0
  9 14  1  0
 16 17  1  0
 17 18  1  0
 18 19  1  0
 19 20  1  0
 16 20  1  0
 21 22  1  0
 20 21  1  0
 19 23  1  0
 18 24  1  0
 15 17  1  0
 10 15  1  0
 26 27  1  0
 27 28  1  0
 28 29  1  0
 29 30  1  0
 30 31  1  0
 26 31  1  0
 30 32  1  0
 29 33  1  0
 34 35  1  0
 31 34  1  0
 28 36  1  0
 25 27  1  0
 11 25  1  0
 12 37  1  0
  6  8  1  0
  4 38  1  0
M  END
