 
     RDKit          2D

 62 63  0  0  0  0  0  0  0  0999 V2000
   19.2774  -11.8495    0.0000 C   0  0  0  0  0  0  0  0  0  0  0  0
   17.7264  -11.8554    0.0000 C   0  0  0  0  0  0  0  0  0  0  0  0
   19.9250  -12.9665    0.0000 C   0  0  0  0  0  0  0  0  0  0  0  0
   17.0845  -12.9784    0.0000 C   0  0  0  0  0  0  0  0  0  0  0  0
   19.2832  -14.0898    0.0000 O   0  0  0  0  0  0  0  0  0  0  0  0
   21.2204  -12.9607    0.0000 O   0  0  0  0  0  0  0  0  0  0  0  0
   15.7890  -12.9784    0.0000 O   0  0  0  0  0  0  0  0  0  0  0  0
   17.7381  -14.0956    0.0000 O   0  0  0  0  0  0  0  0  0  0  0  0
    7.0000  -14.8400    0.0000 C   0  0  0  0  0  0  0  0  0  0  0  0
    7.0000  -16.2400    0.0000 C   0  0  0  0  0  0  0  0  0  0  0  0
    8.2124  -16.9400    0.0000 C   0  0  0  0  0  0  0  0  0  0  0  0
    9.4249  -16.2400    0.0000 C   0  0  0  0  0  0  0  0  0  0  0  0
    9.4249  -14.8400    0.0000 C   0  0  0  0  0  0  0  0  0  0  0  0
    8.2124  -14.1400    0.0000 C   0  0  0  0  0  0  0  0  0  0  0  0
   11.8497  -16.2400    0.0000 C   0  0  0  0  0  0  0  0  0  0  0  0
   11.8497  -14.8400    0.0000 C   0  0  0  0  0  0  0  0  0  0  0  0
   10.6373  -14.1400    0.0000 C   0  0  0  0  0  0  0  0  0  0  0  0
   13.0622  -16.9400    0.0000 C   0  0  0  0  0  0  0  0  0  0  0  0
   14.2746  -16.2400    0.0000 C   0  0  0  0  0  0  0  0  0  0  0  0
   14.2746  -14.8400    0.0000 C   0  0  0  0  0  0  0  0  0  0  0  0
   13.0622  -14.1400    0.0000 N   0  0  0  0  0  0  0  0  0  0  0  0
    5.7876  -16.9400    0.0000 Cl  0  0  0  0  0  0  0  0  0  0  0  0
   10.6373  -12.7400    0.0000 C   0  0  0  0  0  0  0  0  0  0  0  0
   11.8518  -12.0388    0.0000 C   0  0  0  0  0  0  0  0  0  0  0  0
   11.8518  -10.6402    0.0000 N   0  0  0  0  0  0  0  0  0  0  0  0
   13.0479   -9.9495    0.0000 C   0  0  0  0  0  0  0  0  0  0  0  0
   10.6230   -9.9306    0.0000 C   0  0  0  0  0  0  0  0  0  0  0  0
   21.1806  -16.6437    0.0000 C   0  0  0  0  0  0  0  0  0  0  0  0
   21.1806  -18.0466    0.0000 C   0  0  0  0  0  0  0  0  0  0  0  0
   19.9699  -15.9511    0.0000 C   0  0  0  0  0  0  0  0  0  0  0  0
   22.3914  -15.9511    0.0000 N   0  0  0  0  0  0  0  0  0  0  0  0
   19.9699  -18.7509    0.0000 C   0  0  0  0  0  0  0  0  0  0  0  0
   18.7534  -16.6437    0.0000 C   0  0  0  0  0  0  0  0  0  0  0  0
   23.6080  -16.6496    0.0000 C   0  0  0  0  0  0  0  0  0  0  0  0
   18.7534  -18.0466    0.0000 C   0  0  0  0  0  0  0  0  0  0  0  0
   24.8186  -15.9511    0.0000 C   0  0  0  0  0  0  0  0  0  0  0  0
   23.6020  -18.0466    0.0000 O   0  0  0  0  0  0  0  0  0  0  0  0
   17.5425  -18.7509    0.0000 O   0  0  0  0  0  0  0  0  0  0  0  0
   23.9552  -17.7951    0.0000 C   0  0  0  0  0  0  0  0  0  0  0  0
   23.9552  -19.1953    0.0000 C   0  0  0  0  0  0  0  0  0  0  0  0
   25.1707  -19.8954    0.0000 C   0  0  0  0  0  0  0  0  0  0  0  0
   26.3792  -19.1953    0.0000 C   0  0  0  0  0  0  0  0  0  0  0  0
   26.3792  -17.7951    0.0000 C   0  0  0  0  0  0  0  0  0  0  0  0
   25.1707  -17.0949    0.0000 C   0  0  0  0  0  0  0  0  0  0  0  0
   25.1724  -15.6947    0.0000 C   0  0  0  0  0  0  0  0  0  0  0  0
   26.3859  -14.9961    0.0000 N   0  0  0  0  0  0  0  0  0  0  0  0
   23.9608  -14.9931    0.0000 O   0  0  0  0  0  0  0  0  0  0  0  0
   27.5923  -17.0958    0.0000 O   0  0  0  0  0  0  0  0  0  0  0  0
   26.6863  -18.2225    0.0000 C   0  0  0  0  0  0  0  0  0  0  0  0
   26.6863  -19.6480    0.0000 C   0  0  0  0  0  0  0  0  0  0  0  0
   27.8899  -17.5154    0.0000 C   0  0  0  0  0  0  0  0  0  0  0  0
   25.3833  -17.7901    0.0000 N   0  0  0  0  0  0  0  0  0  0  0  0
   27.8899  -20.3317    0.0000 N   0  0  0  0  0  0  0  0  0  0  0  0
   25.3833  -20.0805    0.0000 N   0  0  0  0  0  0  0  0  0  0  0  0
   29.1110  -18.2517    0.0000 N   0  0  0  0  0  0  0  0  0  0  0  0
   27.8899  -16.1365    0.0000 O   0  0  0  0  0  0  0  0  0  0  0  0
   24.5654  -18.9469    0.0000 C   0  0  0  0  0  0  0  0  0  0  0  0
   24.9509  -16.4637    0.0000 C   0  0  0  0  0  0  0  0  0  0  0  0
   29.1110  -19.5955    0.0000 C   0  0  0  0  0  0  0  0  0  0  0  0
   27.8899  -21.7632    0.0000 C   0  0  0  0  0  0  0  0  0  0  0  0
   30.3322  -17.5681    0.0000 C   0  0  0  0  0  0  0  0  0  0  0  0
   30.3613  -20.2967    0.0000 O   0  0  0  0  0  0  0  0  0  0  0  0
  1  2  2  0
  1  3  1  0
  2  4  1  0
  3  5  1  0
  3  6  2  0
  4  7  1  0
  4  8  2  0
  9 10  2  0
 10 11  1  0
 11 12  2  0
 12 13  1  0
 13 14  2  0
  9 14  1  0
 15 16  2  0
 16 17  1  0
 13 17  1  0
 15 18  1  0
 18 19  2  0
 19 20  1  0
 20 21  2  0
 16 21  1  0
 10 22  1  0
 17 23  1  0
 23 24  1  0
 24 25  1  0
 25 26  1  0
 25 27  1  0
 28 29  2  0
 28 30  1  0
 28 31  1  0
 29 32  1  0
 30 33  2  0
 31 34  1  0
 32 35  2  0
 34 36  1  0
 34 37  2  0
 35 38  1  0
 33 35  1  0
 42 43  2  0
 43 44  1  0
 44 39  2  0
 44 45  1  0
 39 40  1  0
 45 46  1  0
 40 41  2  0
 45 47  2  0
 41 42  1  0
 43 48  1  0
 49 50  2  0
 49 51  1  0
 49 52  1  0
 50 53  1  0
 50 54  1  0
 51 55  1  0
 51 56  2  0
 52 57  1  0
 52 58  1  0
 53 59  1  0
 53 60  1  0
 55 61  1  0
 59 62  2  0
 54 57  2  0
 55 59  1  0
M  END
