 
     RDKit          2D

 96102  0  0  0  0  0  0  0  0999 V2000
   23.9552  -17.7951    0.0000 C   0  0  0  0  0  0  0  0  0  0  0  0
   23.9552  -19.1953    0.0000 C   0  0  0  0  0  0  0  0  0  0  0  0
   25.1707  -19.8954    0.0000 C   0  0  0  0  0  0  0  0  0  0  0  0
   26.3792  -19.1953    0.0000 C   0  0  0  0  0  0  0  0  0  0  0  0
   26.3792  -17.7951    0.0000 C   0  0  0  0  0  0  0  0  0  0  0  0
   25.1707  -17.0949    0.0000 C   0  0  0  0  0  0  0  0  0  0  0  0
   25.1724  -15.6947    0.0000 C   0  0  0  0  0  0  0  0  0  0  0  0
   26.3859  -14.9961    0.0000 N   0  0  0  0  0  0  0  0  0  0  0  0
   23.9608  -14.9931    0.0000 O   0  0  0  0  0  0  0  0  0  0  0  0
   27.5923  -17.0958    0.0000 O   0  0  0  0  0  0  0  0  0  0  0  0
   21.1806  -16.6437    0.0000 C   0  0  0  0  0  0  0  0  0  0  0  0
   21.1806  -18.0466    0.0000 C   0  0  0  0  0  0  0  0  0  0  0  0
   19.9699  -15.9511    0.0000 C   0  0  0  0  0  0  0  0  0  0  0  0
   22.3914  -15.9511    0.0000 N   0  0  0  0  0  0  0  0  0  0  0  0
   19.9699  -18.7509    0.0000 C   0  0  0  0  0  0  0  0  0  0  0  0
   18.7534  -16.6437    0.0000 C   0  0  0  0  0  0  0  0  0  0  0  0
   23.6080  -16.6496    0.0000 C   0  0  0  0  0  0  0  0  0  0  0  0
   18.7534  -18.0466    0.0000 C   0  0  0  0  0  0  0  0  0  0  0  0
   24.8186  -15.9511    0.0000 C   0  0  0  0  0  0  0  0  0  0  0  0
   23.6020  -18.0466    0.0000 O   0  0  0  0  0  0  0  0  0  0  0  0
   17.5425  -18.7509    0.0000 O   0  0  0  0  0  0  0  0  0  0  0  0
   26.6863  -18.2225    0.0000 C   0  0  0  0  0  0  0  0  0  0  0  0
   26.6863  -19.6480    0.0000 C   0  0  0  0  0  0  0  0  0  0  0  0
   27.8899  -17.5154    0.0000 C   0  0  0  0  0  0  0  0  0  0  0  0
   25.3833  -17.7901    0.0000 N   0  0  0  0  0  0  0  0  0  0  0  0
   27.8899  -20.3317    0.0000 N   0  0  0  0  0  0  0  0  0  0  0  0
   25.3833  -20.0805    0.0000 N   0  0  0  0  0  0  0  0  0  0  0  0
   29.1110  -18.2517    0.0000 N   0  0  0  0  0  0  0  0  0  0  0  0
   27.8899  -16.1365    0.0000 O   0  0  0  0  0  0  0  0  0  0  0  0
   24.5654  -18.9469    0.0000 C   0  0  0  0  0  0  0  0  0  0  0  0
   24.9509  -16.4637    0.0000 C   0  0  0  0  0  0  0  0  0  0  0  0
   29.1110  -19.5955    0.0000 C   0  0  0  0  0  0  0  0  0  0  0  0
   27.8899  -21.7632    0.0000 C   0  0  0  0  0  0  0  0  0  0  0  0
   30.3322  -17.5681    0.0000 C   0  0  0  0  0  0  0  0  0  0  0  0
   30.3613  -20.2967    0.0000 O   0  0  0  0  0  0  0  0  0  0  0  0
   14.0591  -13.7145    0.0000 N   0  0  0  0  0  0  0  0  0  0  0  0
   15.2989  -14.4130    0.0000 C   0  0  0  0  0  0  0  0  0  0  0  0
   12.8659  -14.4130    0.0000 C   0  0  0  0  0  0  0  0  0  0  0  0
   14.0591  -12.3002    0.0000 C   0  0  0  0  0  0  0  0  0  0  0  0
   15.2989  -15.8216    0.0000 C   0  0  0  0  0  0  0  0  0  0  0  0
   16.4921  -13.7145    0.0000 C   0  0  0  0  0  0  0  0  0  0  0  0
   12.8659  -15.8216    0.0000 C   0  0  0  0  0  0  0  0  0  0  0  0
   11.6669  -13.7145    0.0000 C   0  0  0  0  0  0  0  0  0  0  0  0
   15.2640  -11.6133    0.0000 C   0  0  0  0  0  0  0  0  0  0  0  0
   14.0591  -16.5141    0.0000 S   0  0  0  0  0  0  0  0  0  0  0  0
   16.4921  -16.5141    0.0000 C   0  0  0  0  0  0  0  0  0  0  0  0
   17.6970  -14.4130    0.0000 C   0  0  0  0  0  0  0  0  0  0  0  0
   11.6669  -16.5141    0.0000 C   0  0  0  0  0  0  0  0  0  0  0  0
   10.4271  -14.4130    0.0000 C   0  0  0  0  0  0  0  0  0  0  0  0
   15.2640  -10.2920    0.0000 N   0  0  0  0  0  0  0  0  0  0  0  0
   16.4572  -12.3002    0.0000 C   0  0  0  0  0  0  0  0  0  0  0  0
   17.6970  -15.8216    0.0000 C   0  0  0  0  0  0  0  0  0  0  0  0
   10.4271  -15.8216    0.0000 C   0  0  0  0  0  0  0  0  0  0  0  0
   13.9253   -9.5179    0.0000 C   0  0  0  0  0  0  0  0  0  0  0  0
   16.3990   -9.5528    0.0000 C   0  0  0  0  0  0  0  0  0  0  0  0
   22.5400  -12.9500    0.0000 C   0  0  0  0  0  0  0  0  0  0  0  0
   22.5400  -14.3500    0.0000 C   0  0  0  0  0  0  0  0  0  0  0  0
   23.7524  -15.0500    0.0000 C   0  0  0  0  0  0  0  0  0  0  0  0
   24.9649  -14.3500    0.0000 C   0  0  0  0  0  0  0  0  0  0  0  0
   24.9649  -12.9500    0.0000 C   0  0  0  0  0  0  0  0  0  0  0  0
   23.7524  -12.2500    0.0000 C   0  0  0  0  0  0  0  0  0  0  0  0
   27.3897  -14.3500    0.0000 C   0  0  0  0  0  0  0  0  0  0  0  0
   27.3897  -12.9500    0.0000 C   0  0  0  0  0  0  0  0  0  0  0  0
   26.1773  -12.2500    0.0000 C   0  0  0  0  0  0  0  0  0  0  0  0
   28.6022  -15.0500    0.0000 C   0  0  0  0  0  0  0  0  0  0  0  0
   29.8146  -14.3500    0.0000 C   0  0  0  0  0  0  0  0  0  0  0  0
   29.8146  -12.9500    0.0000 C   0  0  0  0  0  0  0  0  0  0  0  0
   28.6022  -12.2500    0.0000 C   0  0  0  0  0  0  0  0  0  0  0  0
   21.3276  -12.2500    0.0000 C   0  0  0  0  0  0  0  0  0  0  0  0
   20.1321  -12.9404    0.0000 O   0  0  0  0  0  0  0  0  0  0  0  0
   21.3275  -10.8502    0.0000 O   0  0  0  0  0  0  0  0  0  0  0  0
   21.3276  -15.0500    0.0000 O   0  0  0  0  0  0  0  0  0  0  0  0
   31.0311  -12.2477    0.0000 C   0  0  0  0  0  0  0  0  0  0  0  0
   32.2286  -12.9392    0.0000 O   0  0  0  0  0  0  0  0  0  0  0  0
   31.0311  -10.8502    0.0000 O   0  0  0  0  0  0  0  0  0  0  0  0
   31.0311  -15.0523    0.0000 O   0  0  0  0  0  0  0  0  0  0  0  0
   14.0591  -13.7145    0.0000 N   0  0  0  0  0  0  0  0  0  0  0  0
   15.2989  -14.4130    0.0000 C   0  0  0  0  0  0  0  0  0  0  0  0
   15.2989  -15.8216    0.0000 C   0  0  0  0  0  0  0  0  0  0  0  0
   14.0591  -16.5141    0.0000 S   0  0  0  0  0  0  0  0  0  0  0  0
   12.8659  -15.8216    0.0000 C   0  0  0  0  0  0  0  0  0  0  0  0
   12.8659  -14.4130    0.0000 C   0  0  0  0  0  0  0  0  0  0  0  0
   11.6669  -13.7145    0.0000 C   0  0  0  0  0  0  0  0  0  0  0  0
   10.4271  -14.4130    0.0000 C   0  0  0  0  0  0  0  0  0  0  0  0
   10.4271  -15.8216    0.0000 C   0  0  0  0  0  0  0  0  0  0  0  0
   11.6669  -16.5141    0.0000 C   0  0  0  0  0  0  0  0  0  0  0  0
   16.4921  -16.5141    0.0000 C   0  0  0  0  0  0  0  0  0  0  0  0
   17.6970  -15.8216    0.0000 C   0  0  0  0  0  0  0  0  0  0  0  0
   17.6970  -14.4130    0.0000 C   0  0  0  0  0  0  0  0  0  0  0  0
   16.4921  -13.7145    0.0000 C   0  0  0  0  0  0  0  0  0  0  0  0
   14.0591  -12.3002    0.0000 C   0  0  0  0  0  0  0  0  0  0  0  0
   15.2640  -11.6133    0.0000 C   0  0  0  0  0  0  0  0  0  0  0  0
   15.2640  -10.2920    0.0000 N   0  0  0  0  0  0  0  0  0  0  0  0
   13.9253   -9.5179    0.0000 C   0  0  0  0  0  0  0  0  0  0  0  0
   16.3990   -9.5528    0.0000 C   0  0  0  0  0  0  0  0  0  0  0  0
   16.4572  -12.3002    0.0000 C   0  0  0  0  0  0  0  0  0  0  0  0
  4  5  2  0
  5  6  1  0
  6  1  2  0
  6  7  1  0
  1  2  1  0
  7  8  1  0
  2  3  2  0
  7  9  2  0
  3  4  1  0
  5 10  1  0
 11 12  2  0
 11 13  1  0
 11 14  1  0
 12 15  1  0
 13 16  2  0
 14 17  1  0
 15 18  2  0
 17 19  1  0
 17 20  2  0
 18 21  1  0
 16 18  1  0
 22 23  2  0
 22 24  1  0
 22 25  1  0
 23 26  1  0
 23 27  1  0
 24 28  1  0
 24 29  2  0
 25 30  1  0
 25 31  1  0
 26 32  1  0
 26 33  1  0
 28 34  1  0
 32 35  2  0
 27 30  2  0
 28 32  1  0
 56 57  2  0
 57 58  1  0
 58 59  2  0
 59 60  1  0
 60 61  2  0
 56 61  1  0
 62 63  2  0
 63 64  1  0
 60 64  1  0
 62 65  1  0
 65 66  2  0
 66 67  1  0
 67 68  2  0
 63 68  1  0
 56 69  1  0
 69 70  1  0
 69 71  2  0
 57 72  1  0
 67 73  1  0
 73 74  1  0
 73 75  2  0
 66 76  1  0
 36 37  1  0
 36 38  1  0
 36 39  1  0
 37 40  2  0
 37 41  1  0
 38 42  2  0
 38 43  1  0
 39 44  1  0
 40 45  1  0
 40 46  1  0
 41 47  2  0
 42 48  1  0
 43 49  2  0
 44 50  1  0
 44 51  1  0
 46 52  2  0
 48 53  2  0
 50 54  1  0
 50 55  1  0
 42 45  1  0
 47 52  1  0
 49 53  1  0
 77 78  1  0
 77 82  1  0
 77 91  1  0
 78 79  2  0
 78 90  1  0
 82 81  2  0
 82 83  1  0
 91 92  1  0
 79 80  1  0
 79 87  1  0
 90 89  2  0
 81 86  1  0
 83 84  2  0
 92 93  1  0
 92 96  1  0
 87 88  2  0
 86 85  2  0
 93 94  1  0
 93 95  1  0
 81 80  1  0
 89 88  1  0
 84 85  1  0
M  END
