 
     RDKit          2D

 44 34  0  0  0  0  0  0  0  0999 V2000
   21.6932  -17.0217    0.0000 C   0  0  0  0  0  0  0  0  0  0  0  0
   22.9128  -16.3157    0.0000 C   0  0  0  0  0  0  0  0  0  0  0  0
   21.6932  -18.4279    0.0000 C   0  0  0  0  0  0  0  0  0  0  0  0
   20.4737  -16.3214    0.0000 O   0  0  0  0  0  0  0  0  0  0  0  0
   24.1207  -17.0217    0.0000 C   0  0  0  0  0  0  0  0  0  0  0  0
   22.9128  -19.1281    0.0000 C   0  0  0  0  0  0  0  0  0  0  0  0
   19.2600  -17.0274    0.0000 C   0  0  0  0  0  0  0  0  0  0  0  0
   24.1207  -18.4221    0.0000 C   0  0  0  0  0  0  0  0  0  0  0  0
   25.3402  -16.3157    0.0000 N   0  0  0  0  0  0  0  0  0  0  0  0
   18.0405  -16.3274    0.0000 N   0  0  0  0  0  0  0  0  0  0  0  0
   19.2600  -18.4338    0.0000 O   0  0  0  0  0  0  0  0  0  0  0  0
   26.7988  -15.3937    0.0000 C   0  0  0  0  0  0  0  0  0  0  0  0
   24.6750  -15.2537    0.0000 C   0  0  0  0  0  0  0  0  0  0  0  0
   26.1630  -17.5234    0.0000 C   0  0  0  0  0  0  0  0  0  0  0  0
   16.8326  -17.0334    0.0000 C   0  0  0  0  0  0  0  0  0  0  0  0
   18.0405  -14.9210    0.0000 C   0  0  0  0  0  0  0  0  0  0  0  0
   32.7856  -17.4302    0.0000 S   0  0  0  0  0  0  0  0  0  0  0  0
   31.4201  -17.4243    0.0000 O   0  0  0  0  0  0  0  0  0  0  0  0
   32.7739  -18.7022    0.0000 O   0  0  0  0  0  0  0  0  0  0  0  0
   32.7272  -15.8138    0.0000 O   0  0  0  0  0  0  0  0  0  0  0  0
   34.1686  -17.4302    0.0000 O   0  0  0  0  0  0  0  0  0  0  0  0
   30.6791  -16.3389    0.0000 C   0  0  0  0  0  0  0  0  0  0  0  0
   25.6200  -18.1067    0.0000 Na  0  0  0  0  0 15  0  0  0  0  0  0
   28.5133  -18.1067    0.0000 Cl  0  0  0  0  0  0  0  0  0  0  0  0
   13.5407  -14.3856    0.0000 Ca  0  0  0  0  0  2  0  0  0  0  0  0
   12.0007  -14.4498    0.0000 Cl  0  0  0  0  0  0  0  0  0  0  0  0
   15.3607  -14.3856    0.0000 Cl  0  0  0  0  0  0  0  0  0  0  0  0
   19.1865  -14.2095    0.0000 O   0  0  0  0  0  0  0  0  0  0  0  0
   19.1865  -14.2095    0.0000 O   0  0  0  0  0  0  0  0  0  0  0  0
   25.7819  -18.1786    0.0000 C   0  0  0  0  0  0  0  0  0  0  0  0
   26.4894  -16.9650    0.0000 O   0  0  0  0  0  0  0  0  0  0  0  0
   26.4777  -19.3909    0.0000 O   0  0  0  0  0  0  0  0  0  0  0  0
   24.3845  -18.1657    0.0000 O   0  0  0  0  0  0  0  0  0  0  0  0
   29.6575  -18.3272    0.0000 Na  0  0  0  0  0 15  0  0  0  0  0  0
   22.9606  -18.7606    0.0000 O   0  0  0  0  0  0  0  0  0  0  0  0
   24.1731  -18.0606    0.0000 C   0  0  0  0  0  0  0  0  0  0  0  0
   25.3856  -18.7606    0.0000 C   0  0  0  0  0  0  0  0  0  0  0  0
   26.5981  -18.0606    0.0000 C   0  0  0  0  0  0  0  0  0  0  0  0
   27.8105  -18.7606    0.0000 C   0  0  0  0  0  0  0  0  0  0  0  0
   29.0231  -18.0606    0.0000 O   0  0  0  0  0  0  0  0  0  0  0  0
   24.1731  -16.6607    0.0000 O   0  0  0  0  0  0  0  0  0  0  0  0
   25.3856  -20.1605    0.0000 N   0  0  0  0  0  0  0  0  0  0  0  0
   27.8105  -20.1606    0.0000 O   0  0  0  0  0  0  0  0  0  0  0  0
   30.8709  -18.0606    0.0000 K   0  0  0  0  0 15  0  0  0  0  0  0
  1  2  2  0
  1  3  1  0
  1  4  1  0
  2  5  1  0
  3  6  2  0
  4  7  1  0
  5  8  2  0
  5  9  1  0
  7 10  1  0
  7 11  2  0
  9 12  1  0
  9 13  1  0
  9 14  1  0
 10 15  1  0
 10 16  1  0
  6  8  1  0
 17 18  1  0
 17 19  2  0
 17 20  2  0
 17 21  1  0
 18 22  1  0
 25 26  1  0
 25 27  1  0
 30 31  1  0
 30 32  1  0
 30 33  2  0
 35 36  1  0
 36 37  1  0
 37 38  1  0
 38 39  1  0
 39 40  1  0
 36 41  2  0
 37 42  1  6
 39 43  2  0
M  CHG  8   9   1  21  -1  23   1  24  -1  32  -1  34   1  35  -1  40  -1
M  CHG  2  42   1  44   1
M  END
