 
 
 
 22 22  0  0  0  0  0  0  0  0999 V2000
   24.5700  -16.4500    0.0000 Cl  0  0  0  0  0  0  0  0  0  0  0  0
   22.6100  -15.6800    0.0000 C   0  0  0  0  0  0  0  0  0  0  0  0
   22.6100  -17.0800    0.0000 C   0  0  0  0  0  0  0  0  0  0  0  0
   21.3500  -17.7800    0.0000 C   0  0  0  0  0  0  0  0  0  0  0  0
   20.1600  -17.0800    0.0000 C   0  0  0  0  0  0  0  0  0  0  0  0
   20.1600  -15.6800    0.0000 C   0  0  0  0  0  0  0  0  0  0  0  0
   21.3500  -14.9800    0.0000 C   0  0  0  0  0  0  0  0  0  0  0  0
   18.9000  -14.9800    0.0000 C   0  0  0  0  0  0  0  0  0  0  0  0
   17.7100  -15.6800    0.0000 C   0  0  0  0  0  0  0  0  0  0  0  0
   18.9000  -13.5800    0.0000 O   0  0  0  0  0  0  0  0  0  0  0  0
   16.5200  -14.9800    0.0000 O   0  0  0  0  0  0  0  0  0  0  0  0
   17.7100  -17.0800    0.0000 O   0  0  0  0  0  0  0  0  0  0  0  0
   15.3300  -15.6800    0.0000 C   0  0  0  0  0  0  0  0  0  0  0  0
   15.3300  -17.0800    0.0000 C   0  0  0  0  0  0  0  0  0  0  0  0
   14.1400  -17.7800    0.0000 C   0  0  0  0  0  0  0  0  0  0  0  0
   12.8800  -17.0800    0.0000 N   0  0  0  0  0  0  0  0  0  0  0  0
   12.8800  -15.6800    0.0000 C   0  0  0  0  0  0  0  0  0  0  0  0
   14.1400  -14.9800    0.0000 C   0  0  0  0  0  0  0  0  0  0  0  0
   11.6900  -17.7800    0.0000 C   0  0  0  0  0  0  0  0  0  0  0  0
   14.1572  -19.1799    0.0000 C   0  0  0  0  0  0  0  0  0  0  0  0
   11.6734  -14.9700    0.0000 C   0  0  0  0  0  0  0  0  0  0  0  0
   12.8973  -14.2801    0.0000 C   0  0  0  0  0  0  0  0  0  0  0  0
  2  3  2  0     0  0
  3  4  1  0     0  0
  4  5  2  0     0  0
  5  6  1  0     0  0
  6  7  2  0     0  0
  2  7  1  0     0  0
  6  8  1  0     0  0
  8  9  1  0     0  0
  8 10  1  0     0  0
  9 11  1  0     0  0
  9 12  2  0     0  0
 11 13  1  0     0  0
 13 14  1  0     0  0
 14 15  1  0     0  0
 15 16  1  0     0  0
 16 17  1  0     0  0
 17 18  1  0     0  0
 13 18  1  0     0  0
 16 19  1  0     0  0
 15 20  1  0     0  0
 17 21  1  0     0  0
 17 22  1  0     0  0
M  END
