 
     RDKit          2D

 33 10  0  0  0  0  0  0  0  0999 V2000
   32.1902  -24.4462    0.0000 B   0  0  0  0  0  0  0  0  0  0  0  0
   32.1831  -23.0462    0.0000 O   0  0  0  0  0  0  0  0  0  0  0  0
   30.9813  -25.1523    0.0000 O   0  0  0  0  0  0  0  0  0  0  0  0
   33.4061  -25.1401    0.0000 O   0  0  0  0  0  0  0  0  0  0  0  0
   25.6200  -18.1067    0.0000 Na  0  0  0  0  0 15  0  0  0  0  0  0
   28.5133  -18.1067    0.0000 Cl  0  0  0  0  0  0  0  0  0  0  0  0
   21.8400  -16.1467    0.0000 K   0  0  0  0  0 15  0  0  0  0  0  0
   24.7333  -16.1467    0.0000 Cl  0  0  0  0  0  0  0  0  0  0  0  0
   15.2600  -13.3700    0.0000 C   0  0  0  0  0  0  0  0  0  0  0  0
   16.4724  -14.0700    0.0000 O   0  0  0  0  0  0  0  0  0  0  0  0
   14.0476  -14.0700    0.0000 O   0  0  0  0  0  0  0  0  0  0  0  0
   15.2600  -11.9700    0.0000 O   0  0  0  0  0  0  0  0  0  0  0  0
   13.5800  -16.5900    0.0000 Na  0  0  0  0  0 15  0  0  0  0  0  0
   15.8900  -16.5900    0.0000 Na  0  0  0  0  0 15  0  0  0  0  0  0
   23.5200  -18.2700    0.0000 P   0  0  0  0  0  0  0  0  0  0  0  0
   23.5200  -16.8700    0.0000 O   0  0  0  0  0  0  0  0  0  0  0  0
   24.9200  -18.2700    0.0000 O   0  0  0  0  0  0  0  0  0  0  0  0
   22.1200  -18.2700    0.0000 O   0  0  0  0  0  0  0  0  0  0  0  0
   23.5200  -19.6700    0.0000 O   0  0  0  0  0  0  0  0  0  0  0  0
   23.4033  -21.0933    0.0000 Na  0  0  0  0  0 15  0  0  0  0  0  0
   26.7633  -18.2933    0.0000 Na  0  0  0  0  0 15  0  0  0  0  0  0
   30.8700  -18.3400    0.0000 O   0  0  0  0  0  0  0  0  0  0  0  0
   30.8700  -18.3400    0.0000 O   0  0  0  0  0  0  0  0  0  0  0  0
   30.8700  -18.3400    0.0000 O   0  0  0  0  0  0  0  0  0  0  0  0
   30.8700  -18.3400    0.0000 O   0  0  0  0  0  0  0  0  0  0  0  0
   30.8700  -18.3400    0.0000 O   0  0  0  0  0  0  0  0  0  0  0  0
   30.8700  -18.3400    0.0000 O   0  0  0  0  0  0  0  0  0  0  0  0
   30.8700  -18.3400    0.0000 O   0  0  0  0  0  0  0  0  0  0  0  0
   30.8700  -18.3400    0.0000 O   0  0  0  0  0  0  0  0  0  0  0  0
   30.8700  -18.3400    0.0000 O   0  0  0  0  0  0  0  0  0  0  0  0
   30.8700  -18.3400    0.0000 O   0  0  0  0  0  0  0  0  0  0  0  0
   30.8700  -18.3400    0.0000 O   0  0  0  0  0  0  0  0  0  0  0  0
   30.8700  -18.3400    0.0000 O   0  0  0  0  0  0  0  0  0  0  0  0
  1  3  1  0
  1  2  1  0
  1  4  1  0
  9 10  1  0
  9 11  1  0
  9 12  2  0
 15 16  2  0
 15 17  1  0
 15 18  1  0
 15 19  1  0
M  CHG  8   5   1   6  -1   7   1   8  -1  10  -1  11  -1  13   1  14   1
M  CHG  4  17  -1  19  -1  20   1  21   1
M  END
