 
     RDKit          2D

 74 80  0  0  1  0  0  0  0  0999 V2000
   14.4712  -16.7139    0.0000 C   0  0  0  0  0  0  0  0  0  0  0  0
   15.6688  -15.9949    0.0000 C   0  0  0  0  0  0  0  0  0  0  0  0
   15.6450  -14.5981    0.0000 N   0  0  0  0  0  0  0  0  0  0  0  0
   14.4234  -13.9204    0.0000 C   0  0  0  0  0  0  0  0  0  0  0  0
   13.2257  -14.6395    0.0000 C   0  0  0  0  0  0  0  0  0  0  0  0
   13.2496  -16.0363    0.0000 C   0  0  0  0  0  0  0  0  0  0  0  0
   16.8904  -16.6725    0.0000 C   0  0  0  0  0  0  0  0  0  0  0  0
   18.0881  -15.9534    0.0000 C   0  0  0  0  0  0  0  0  0  0  0  0
   18.0642  -14.5567    0.0000 C   0  0  0  0  0  0  0  0  0  0  0  0
   16.8426  -13.8791    0.0000 C   0  0  0  0  0  0  0  0  0  0  0  0
   19.3097  -16.6312    0.0000 C   0  0  0  0  0  0  0  0  0  0  0  0
   20.5073  -15.9121    0.0000 C   0  0  0  0  0  0  0  0  0  0  0  0
   20.4834  -14.5153    0.0000 C   0  0  0  0  0  0  0  0  0  0  0  0
   19.2619  -13.8377    0.0000 C   0  0  0  0  0  0  0  0  0  0  0  0
   12.1078  -17.0605    0.0000 C   0  0  0  0  0  0  0  0  0  0  0  0
   12.8175  -18.2549    0.0000 C   0  0  0  0  0  0  0  0  0  0  0  0
   14.2041  -18.0851    0.0000 N   0  0  0  0  0  0  0  0  0  0  0  0
   10.7110  -17.0780    0.0000 C   0  0  0  0  0  0  0  0  0  0  0  0
   10.0277  -18.2965    0.0000 C   0  0  0  0  0  0  0  0  0  0  0  0
   10.7374  -19.4908    0.0000 C   0  0  0  0  0  0  0  0  0  0  0  0
   12.1342  -19.4733    0.0000 C   0  0  0  0  0  0  0  0  0  0  0  0
   10.0560  -20.7064    0.0000 O   0  0  0  0  0  0  0  0  0  0  0  0
    8.6196  -20.7249    0.0000 C   0  0  0  0  0  0  0  0  0  0  0  0
   19.3337  -18.0495    0.0000 C   0  0  0  0  0  0  0  0  0  0  0  0
   21.6809  -13.7964    0.0000 O   0  0  0  0  0  0  0  0  0  0  0  0
   21.7479  -16.6001    0.0000 O   0  0  0  0  0  0  0  0  0  0  0  0
   18.1454  -18.7627    0.0000 O   0  0  0  0  0  0  0  0  0  0  0  0
   20.5478  -18.7233    0.0000 O   0  0  0  0  0  0  0  0  0  0  0  0
   22.9456  -15.8811    0.0000 C   0  0  0  0  0  0  0  0  0  0  0  0
   21.7268  -12.3802    0.0000 C   0  0  0  0  0  0  0  0  0  0  0  0
   22.8463  -11.6663    0.0000 C   0  0  0  0  0  0  0  0  0  0  0  0
   20.4439  -11.7073    0.0000 O   0  0  0  0  0  0  0  0  0  0  0  0
   24.0803  -12.3510    0.0000 C   0  0  0  0  0  0  0  0  0  0  0  0
   25.2781  -11.6321    0.0000 C   0  0  0  0  0  0  0  0  0  0  0  0
   25.2543  -10.2354    0.0000 C   0  0  0  0  0  0  0  0  0  0  0  0
   24.0202   -9.5506    0.0000 C   0  0  0  0  0  0  0  0  0  0  0  0
   22.8225  -10.2695    0.0000 C   0  0  0  0  0  0  0  0  0  0  0  0
   26.4520   -9.5164    0.0000 O   0  0  0  0  0  0  0  0  0  0  0  0
   25.1942   -7.4348    0.0000 C   0  0  0  0  0  0  0  0  0  0  0  0
   23.9964   -8.1538    0.0000 O   0  0  0  0  0  0  0  0  0  0  0  0
   26.4826  -12.3004    0.0000 O   0  0  0  0  0  0  0  0  0  0  0  0
   27.6825  -11.5800    0.0000 C   0  0  0  0  0  0  0  0  0  0  0  0
   21.7867  -17.9802    0.0000 C   0  0  0  0  0  0  0  0  0  0  0  0
   27.6838  -10.1999    0.0000 C   0  0  0  0  0  0  0  0  0  0  0  0
   19.0523  -16.4104    0.0000 C   0  0  0  0  0  0  0  0  0  0  0  0
   19.0523  -17.8110    0.0000 C   0  0  0  0  0  0  0  0  0  0  0  0
   20.2682  -18.5113    0.0000 C   0  0  0  0  0  0  0  0  0  0  0  0
   20.2682  -15.7101    0.0000 C   0  0  0  0  0  0  0  0  0  0  0  0
   21.4769  -16.4104    0.0000 C   0  0  0  0  0  0  0  0  0  0  0  0
   21.4710  -17.8110    0.0000 C   0  0  0  0  0  0  0  0  0  0  0  0
   22.6809  -18.5163    0.0000 C   0  0  0  0  0  0  0  0  0  0  0  0
   23.8968  -17.8213    0.0000 N   0  0  0  0  0  0  0  0  0  0  0  0
   23.9027  -16.4208    0.0000 N   0  0  0  0  0  0  0  0  0  0  0  0
   22.6928  -15.7154    0.0000 C   0  0  0  0  0  0  0  0  0  0  0  0
   22.6987  -14.3148    0.0000 N   0  0  0  0  0  0  0  0  0  0  0  0
   23.9148  -13.6196    0.0000 N   0  0  0  0  0  0  0  0  0  0  0  0
   28.1844  -16.5518    0.0000 Cl  0  0  0  0  0  0  0  0  0  0  0  0
   22.4791  -15.9596    0.0000 C   0  0  0  0  0  0  0  0  0  0  0  0
   22.4731  -17.3165    0.0000 C   0  0  0  0  0  0  0  0  0  0  0  0
   23.6605  -15.2870    0.0000 C   0  0  0  0  0  0  0  0  0  0  0  0
   21.3034  -15.2811    0.0000 S   0  0  0  0  0  0  0  0  0  0  0  0
   23.6430  -18.0010    0.0000 C   0  0  0  0  0  0  0  0  0  0  0  0
   21.3034  -17.9950    0.0000 N   0  0  0  0  0  0  0  0  0  0  0  0
   24.8304  -15.9713    0.0000 C   0  0  0  0  0  0  0  0  0  0  0  0
   20.1278  -15.9596    0.0000 N   0  0  0  0  0  0  0  0  0  0  0  0
   19.9933  -14.4564    0.0000 O   0  0  0  0  0  0  0  0  0  0  0  0
   22.5376  -14.4564    0.0000 O   0  0  0  0  0  0  0  0  0  0  0  0
   24.8244  -17.3282    0.0000 C   0  0  0  0  0  0  0  0  0  0  0  0
   20.1278  -17.3165    0.0000 C   0  0  0  0  0  0  0  0  0  0  0  0
   26.0118  -15.2987    0.0000 S   0  0  0  0  0  0  0  0  0  0  0  0
   26.0003  -18.0127    0.0000 Cl  0  0  0  0  0  0  0  0  0  0  0  0
   27.2636  -14.4623    0.0000 N   0  0  0  0  0  0  0  0  0  0  0  0
   27.1349  -16.3164    0.0000 O   0  0  0  0  0  0  0  0  0  0  0  0
   24.9357  -14.2516    0.0000 O   0  0  0  0  0  0  0  0  0  0  0  0
  1  2  1  0
  2  3  1  0
  3  4  1  0
  4  5  1  0
  5  6  1  0
  1  6  2  0
  2  7  1  6
  8  7  1  1
  8  9  1  0
  9 10  1  1
  3 10  1  0
  8 11  1  0
 11 12  1  0
 12 13  1  0
 13 14  1  0
  9 14  1  0
  6 15  1  0
 15 16  2  0
 16 17  1  0
  1 17  1  0
 15 18  1  0
 18 19  2  0
 19 20  1  0
 20 21  2  0
 16 21  1  0
 20 22  1  0
 22 23  1  0
 11 24  1  1
 13 25  1  1
 12 26  1  6
 24 27  2  0
 24 28  1  0
 26 29  1  0
 25 30  1  0
 30 31  1  0
 30 32  2  0
 31 33  2  0
 33 34  1  0
 34 35  2  0
 35 36  1  0
 36 37  2  0
 31 37  1  0
 35 38  1  0
 39 40  1  0
 36 40  1  0
 34 41  1  0
 41 42  1  0
 28 43  1  0
 38 44  1  0
 45 46  2  0
 46 47  1  0
 47 50  2  0
 49 48  2  0
 49 50  1  0
 50 51  1  0
 51 52  2  0
 52 53  1  0
 53 54  2  0
 54 49  1  0
 48 45  1  0
 54 55  1  0
 55 56  1  0
 58 59  1  0
 58 60  2  0
 58 61  1  0
 59 62  2  0
 59 63  1  0
 60 64  1  0
 61 65  1  0
 61 66  2  0
 61 67  2  0
 62 68  1  0
 63 69  1  0
 64 70  1  0
 68 71  1  0
 70 72  1  0
 70 73  2  0
 70 74  2  0
 64 68  2  0
 65 69  1  0
M  END
