 
     RDKit          2D

 85 93  0  0  0  0  0  0  0  0999 V2000
   17.5658  -18.6523    0.0000 C   0  0  0  0  0  0  0  0  0  0  0  0
   16.3577  -19.3517    0.0000 C   0  0  0  0  0  0  0  0  0  0  0  0
   15.1480  -18.6552    0.0000 C   0  0  0  0  0  0  0  0  0  0  0  0
   15.1464  -17.2592    0.0000 C   0  0  0  0  0  0  0  0  0  0  0  0
   16.3545  -16.5598    0.0000 C   0  0  0  0  0  0  0  0  0  0  0  0
   17.5641  -17.2564    0.0000 C   0  0  0  0  0  0  0  0  0  0  0  0
   22.4196  -18.6748    0.0000 C   0  0  0  0  0  0  0  0  0  0  0  0
   22.4196  -17.2833    0.0000 C   0  0  0  0  0  0  0  0  0  0  0  0
   21.2093  -19.3705    0.0000 N   0  0  0  0  0  0  0  0  0  0  0  0
   23.6358  -19.3705    0.0000 C   0  0  0  0  0  0  0  0  0  0  0  0
   23.6358  -16.5817    0.0000 C   0  0  0  0  0  0  0  0  0  0  0  0
   21.2093  -16.5817    0.0000 S   0  0  0  0  0  0  0  0  0  0  0  0
   19.9990  -18.6748    0.0000 C   0  0  0  0  0  0  0  0  0  0  0  0
   24.8518  -18.6748    0.0000 C   0  0  0  0  0  0  0  0  0  0  0  0
   24.8518  -17.2833    0.0000 C   0  0  0  0  0  0  0  0  0  0  0  0
   19.9990  -17.2833    0.0000 N   0  0  0  0  0  0  0  0  0  0  0  0
   18.7713  -19.3705    0.0000 C   0  0  0  0  0  0  0  0  0  0  0  0
   26.0738  -19.3705    0.0000 Cl  0  0  0  0  0  0  0  0  0  0  0  0
   26.0738  -16.5817    0.0000 S   0  0  0  0  0  0  0  0  0  0  0  0
   27.2898  -15.8742    0.0000 N   0  0  0  0  0  0  0  0  0  0  0  0
   26.7754  -17.7977    0.0000 O   0  0  0  0  0  0  0  0  0  0  0  0
   25.3662  -15.3597    0.0000 O   0  0  0  0  0  0  0  0  0  0  0  0
   22.4428  -15.9221    0.0000 O   0  0  0  0  0  0  0  0  0  0  0  0
   20.0112  -15.8594    0.0000 O   0  0  0  0  0  0  0  0  0  0  0  0
   14.4712  -16.7139    0.0000 C   0  0  0  0  0  0  0  0  0  0  0  0
   15.6688  -15.9949    0.0000 C   0  0  0  0  0  0  0  0  0  0  0  0
   15.6450  -14.5981    0.0000 N   0  0  0  0  0  0  0  0  0  0  0  0
   14.4234  -13.9204    0.0000 C   0  0  0  0  0  0  0  0  0  0  0  0
   13.2257  -14.6395    0.0000 C   0  0  0  0  0  0  0  0  0  0  0  0
   13.2496  -16.0363    0.0000 C   0  0  0  0  0  0  0  0  0  0  0  0
   16.8904  -16.6725    0.0000 C   0  0  0  0  0  0  0  0  0  0  0  0
   18.0881  -15.9534    0.0000 C   0  0  0  0  0  0  0  0  0  0  0  0
   18.0642  -14.5567    0.0000 C   0  0  0  0  0  0  0  0  0  0  0  0
   16.8426  -13.8791    0.0000 C   0  0  0  0  0  0  0  0  0  0  0  0
   19.3097  -16.6312    0.0000 C   0  0  0  0  0  0  0  0  0  0  0  0
   20.5073  -15.9121    0.0000 C   0  0  0  0  0  0  0  0  0  0  0  0
   20.4834  -14.5153    0.0000 C   0  0  0  0  0  0  0  0  0  0  0  0
   19.2619  -13.8377    0.0000 C   0  0  0  0  0  0  0  0  0  0  0  0
   12.1078  -17.0605    0.0000 C   0  0  0  0  0  0  0  0  0  0  0  0
   12.8175  -18.2549    0.0000 C   0  0  0  0  0  0  0  0  0  0  0  0
   14.2041  -18.0851    0.0000 N   0  0  0  0  0  0  0  0  0  0  0  0
   10.7110  -17.0780    0.0000 C   0  0  0  0  0  0  0  0  0  0  0  0
   10.0277  -18.2965    0.0000 C   0  0  0  0  0  0  0  0  0  0  0  0
   10.7374  -19.4908    0.0000 C   0  0  0  0  0  0  0  0  0  0  0  0
   12.1342  -19.4733    0.0000 C   0  0  0  0  0  0  0  0  0  0  0  0
   10.0560  -20.7064    0.0000 O   0  0  0  0  0  0  0  0  0  0  0  0
    8.6196  -20.7249    0.0000 C   0  0  0  0  0  0  0  0  0  0  0  0
   19.3337  -18.0495    0.0000 C   0  0  0  0  0  0  0  0  0  0  0  0
   21.6809  -13.7964    0.0000 O   0  0  0  0  0  0  0  0  0  0  0  0
   21.7479  -16.6001    0.0000 O   0  0  0  0  0  0  0  0  0  0  0  0
   18.1454  -18.7627    0.0000 O   0  0  0  0  0  0  0  0  0  0  0  0
   20.5478  -18.7233    0.0000 O   0  0  0  0  0  0  0  0  0  0  0  0
   22.9456  -15.8811    0.0000 C   0  0  0  0  0  0  0  0  0  0  0  0
   21.7268  -12.3802    0.0000 C   0  0  0  0  0  0  0  0  0  0  0  0
   22.8463  -11.6663    0.0000 C   0  0  0  0  0  0  0  0  0  0  0  0
   20.4439  -11.7073    0.0000 O   0  0  0  0  0  0  0  0  0  0  0  0
   24.0803  -12.3510    0.0000 C   0  0  0  0  0  0  0  0  0  0  0  0
   25.2781  -11.6321    0.0000 C   0  0  0  0  0  0  0  0  0  0  0  0
   25.2543  -10.2354    0.0000 C   0  0  0  0  0  0  0  0  0  0  0  0
   24.0202   -9.5506    0.0000 C   0  0  0  0  0  0  0  0  0  0  0  0
   22.8225  -10.2695    0.0000 C   0  0  0  0  0  0  0  0  0  0  0  0
   26.4520   -9.5164    0.0000 O   0  0  0  0  0  0  0  0  0  0  0  0
   25.1942   -7.4348    0.0000 C   0  0  0  0  0  0  0  0  0  0  0  0
   23.9964   -8.1538    0.0000 O   0  0  0  0  0  0  0  0  0  0  0  0
   26.4826  -12.3004    0.0000 O   0  0  0  0  0  0  0  0  0  0  0  0
   27.6825  -11.5800    0.0000 C   0  0  0  0  0  0  0  0  0  0  0  0
   21.7867  -17.9802    0.0000 C   0  0  0  0  0  0  0  0  0  0  0  0
   27.6838  -10.1999    0.0000 C   0  0  0  0  0  0  0  0  0  0  0  0
   18.8030  -13.6696    0.0000 C   0  0  0  0  0  0  0  0  0  0  0  0
   18.8030  -15.0694    0.0000 C   0  0  0  0  0  0  0  0  0  0  0  0
   20.0183  -15.7693    0.0000 C   0  0  0  0  0  0  0  0  0  0  0  0
   20.0183  -12.9697    0.0000 C   0  0  0  0  0  0  0  0  0  0  0  0
   21.2263  -13.6696    0.0000 C   0  0  0  0  0  0  0  0  0  0  0  0
   21.2279  -15.0704    0.0000 C   0  0  0  0  0  0  0  0  0  0  0  0
   22.5606  -15.5019    0.0000 C   0  0  0  0  0  0  0  0  0  0  0  0
   23.3827  -14.3677    0.0000 C   0  0  0  0  0  0  0  0  0  0  0  0
   22.5581  -13.2353    0.0000 N   0  0  0  0  0  0  0  0  0  0  0  0
   17.5912  -12.9692    0.0000 O   0  0  0  0  0  0  0  0  0  0  0  0
   17.5912  -15.7700    0.0000 N   0  0  0  0  0  0  0  0  0  0  0  0
   16.3785  -15.0708    0.0000 N   0  0  0  0  0  0  0  0  0  0  0  0
   15.1665  -15.7712    0.0000 C   0  0  0  0  0  0  0  0  0  0  0  0
   13.9539  -15.0720    0.0000 N   0  0  0  0  0  0  0  0  0  0  0  0
   15.1674  -17.1710    0.0000 O   0  0  0  0  0  0  0  0  0  0  0  0
   22.9948  -16.8327    0.0000 O   0  0  0  0  0  0  0  0  0  0  0  0
   22.9892  -11.9035    0.0000 C   0  0  0  0  0  0  0  0  0  0  0  0
  4  5  1  0
  5  6  2  0
  6  1  1  0
  1  2  2  0
  7  8  2  0
  7  9  1  0
  7 10  1  0
  8 11  1  0
  8 12  1  0
  9 13  1  0
 10 14  2  0
 11 15  2  0
 12 16  1  0
 13 17  1  0
 14 18  1  0
 15 19  1  0
 17  1  1  0
 19 20  1  0
 19 21  2  0
 19 22  2  0
 13 16  1  0
 14 15  1  0
  2  3  1  0
 12 23  2  0
  3  4  2  0
 12 24  2  0
 25 26  1  0
 26 27  1  0
 27 28  1  0
 28 29  1  0
 29 30  1  0
 25 30  2  0
 26 31  1  6
 32 31  1  1
 32 33  1  0
 33 34  1  1
 27 34  1  0
 32 35  1  0
 35 36  1  0
 36 37  1  0
 37 38  1  0
 33 38  1  0
 30 39  1  0
 39 40  2  0
 40 41  1  0
 25 41  1  0
 39 42  1  0
 42 43  2  0
 43 44  1  0
 44 45  2  0
 40 45  1  0
 44 46  1  0
 46 47  1  0
 35 48  1  1
 37 49  1  1
 36 50  1  6
 48 51  2  0
 48 52  1  0
 50 53  1  0
 49 54  1  0
 54 55  1  0
 54 56  2  0
 55 57  2  0
 57 58  1  0
 58 59  2  0
 59 60  1  0
 60 61  2  0
 55 61  1  0
 59 62  1  0
 63 64  1  0
 60 64  1  0
 58 65  1  0
 65 66  1  0
 52 67  1  0
 62 68  1  0
 75 76  1  0
 76 77  1  0
 77 73  1  0
 72 69  1  0
 69 78  2  0
 70 79  2  0
 69 70  1  0
 79 80  1  0
 70 71  1  0
 80 81  1  0
 71 74  2  0
 81 82  1  0
 73 72  2  0
 81 83  2  0
 73 74  1  0
 75 84  1  0
 74 75  1  0
 77 85  1  0
M  END
