 
     RDKit          2D

107112  0  0  0  0  0  0  0  0999 V2000
   28.1400  -17.7100    0.0000 C   0  0  0  0  0  0  0  0  0  0  0  0
   28.1400  -19.1100    0.0000 C   0  0  0  0  0  0  0  0  0  0  0  0
   26.8100  -17.2900    0.0000 N   0  0  0  0  0  0  0  0  0  0  0  0
   29.3300  -17.0100    0.0000 C   0  0  0  0  0  0  0  0  0  0  0  0
   29.3300  -19.8100    0.0000 N   0  0  0  0  0  0  0  0  0  0  0  0
   26.8100  -19.6000    0.0000 N   0  0  0  0  0  0  0  0  0  0  0  0
   25.6200  -16.5900    0.0000 C   0  0  0  0  0  0  0  0  0  0  0  0
   25.9700  -18.4800    0.0000 C   0  0  0  0  0  0  0  0  0  0  0  0
   30.5900  -17.7100    0.0000 N   0  0  0  0  0  0  0  0  0  0  0  0
   29.3300  -15.6100    0.0000 O   0  0  0  0  0  0  0  0  0  0  0  0
   30.5900  -19.1100    0.0000 C   0  0  0  0  0  0  0  0  0  0  0  0
   29.3300  -21.2800    0.0000 C   0  0  0  0  0  0  0  0  0  0  0  0
   24.4300  -17.2900    0.0000 C   0  0  0  0  0  0  0  0  0  0  0  0
   31.7800  -17.0100    0.0000 C   0  0  0  0  0  0  0  0  0  0  0  0
   31.7800  -19.8100    0.0000 O   0  0  0  0  0  0  0  0  0  0  0  0
   23.1700  -16.5900    0.0000 C   0  0  0  0  0  0  0  0  0  0  0  0
   24.4300  -18.6900    0.0000 O   0  0  0  0  0  0  0  0  0  0  0  0
   21.9800  -17.2900    0.0000 O   0  0  0  0  0  0  0  0  0  0  0  0
   17.0325  -17.0009    0.0000 C   0  0  0  0  0  0  0  0  0  0  0  0
   17.0325  -18.4031    0.0000 C   0  0  0  0  0  0  0  0  0  0  0  0
   18.2497  -19.1041    0.0000 C   0  0  0  0  0  0  0  0  0  0  0  0
   19.4598  -18.4031    0.0000 C   0  0  0  0  0  0  0  0  0  0  0  0
   19.4598  -17.0009    0.0000 C   0  0  0  0  0  0  0  0  0  0  0  0
   18.2497  -16.2999    0.0000 C   0  0  0  0  0  0  0  0  0  0  0  0
   20.6653  -16.2999    0.0000 C   0  0  0  0  0  0  0  0  0  0  0  0
   21.8762  -16.9938    0.0000 C   0  0  0  0  0  0  0  0  0  0  0  0
   23.0872  -16.2927    0.0000 N   0  0  0  0  0  0  0  0  0  0  0  0
   24.2981  -16.9867    0.0000 C   0  0  0  0  0  0  0  0  0  0  0  0
   20.6609  -14.8977    0.0000 O   0  0  0  0  0  0  0  0  0  0  0  0
   21.8793  -18.3959    0.0000 C   0  0  0  0  0  0  0  0  0  0  0  0
   29.1200  -17.5000    0.0000 Cl  0  0  0  0  0  0  0  0  0  0  0  0
   22.7751  -18.0380    0.0000 C   0  0  0  0  0  0  0  0  0  0  0  0
   22.7751  -16.6387    0.0000 C   0  0  0  0  0  0  0  0  0  0  0  0
   23.9414  -18.7377    0.0000 C   0  0  0  0  0  0  0  0  0  0  0  0
   21.5624  -18.7377    0.0000 C   0  0  0  0  0  0  0  0  0  0  0  0
   21.5624  -15.9389    0.0000 C   0  0  0  0  0  0  0  0  0  0  0  0
   23.9880  -15.9389    0.0000 C   0  0  0  0  0  0  0  0  0  0  0  0
   23.9414  -20.1371    0.0000 C   0  0  0  0  0  0  0  0  0  0  0  0
   25.2008  -18.0380    0.0000 N   0  0  0  0  0  0  0  0  0  0  0  0
   20.3496  -18.0380    0.0000 C   0  0  0  0  0  0  0  0  0  0  0  0
   20.3496  -16.6387    0.0000 C   0  0  0  0  0  0  0  0  0  0  0  0
   25.2008  -16.6387    0.0000 C   0  0  0  0  0  0  0  0  0  0  0  0
   25.1541  -20.8368    0.0000 C   0  0  0  0  0  0  0  0  0  0  0  0
   19.1368  -18.7377    0.0000 O   0  0  0  0  0  0  0  0  0  0  0  0
   19.1368  -15.9389    0.0000 O   0  0  0  0  0  0  0  0  0  0  0  0
   26.3670  -20.1371    0.0000 C   0  0  0  0  0  0  0  0  0  0  0  0
   25.1541  -22.2363    0.0000 C   0  0  0  0  0  0  0  0  0  0  0  0
   17.9240  -18.0380    0.0000 C   0  0  0  0  0  0  0  0  0  0  0  0
   17.9240  -16.6387    0.0000 C   0  0  0  0  0  0  0  0  0  0  0  0
   27.5797  -20.8368    0.0000 C   0  0  0  0  0  0  0  0  0  0  0  0
   26.3669  -22.9359    0.0000 C   0  0  0  0  0  0  0  0  0  0  0  0
   27.5797  -22.2363    0.0000 C   0  0  0  0  0  0  0  0  0  0  0  0
   28.7926  -20.0905    0.0000 O   0  0  0  0  0  0  0  0  0  0  0  0
   28.7926  -22.8893    0.0000 O   0  0  0  0  0  0  0  0  0  0  0  0
   30.0064  -20.7468    0.0000 C   0  0  0  0  0  0  0  0  0  0  0  0
   29.9669  -22.1638    0.0000 C   0  0  0  0  0  0  0  0  0  0  0  0
   34.1144  -21.4905    0.0000 Cl  0  0  0  0  0  0  0  0  0  0  0  0
   26.8283  -16.1596    0.0000 C   0  0  0  0  0  0  0  0  0  0  0  0
   25.8983  -17.2080    0.0000 C   0  0  0  0  0  0  0  0  0  0  0  0
   26.7758  -14.7697    0.0000 C   0  0  0  0  0  0  0  0  0  0  0  0
   28.1172  -16.7179    0.0000 O   0  0  0  0  0  0  0  0  0  0  0  0
   26.6059  -18.4199    0.0000 C   0  0  0  0  0  0  0  0  0  0  0  0
   24.5020  -17.2133    0.0000 C   0  0  0  0  0  0  0  0  0  0  0  0
   25.5646  -14.0593    0.0000 C   0  0  0  0  0  0  0  0  0  0  0  0
   27.9930  -14.0709    0.0000 N   0  0  0  0  0  0  0  0  0  0  0  0
   27.9765  -18.1191    0.0000 C   0  0  0  0  0  0  0  0  0  0  0  0
   25.9243  -19.6962    0.0000 C   0  0  0  0  0  0  0  0  0  0  0  0
   23.8113  -18.4381    0.0000 C   0  0  0  0  0  0  0  0  0  0  0  0
   25.5704  -12.6616    0.0000 C   0  0  0  0  0  0  0  0  0  0  0  0
   24.3649  -14.7638    0.0000 C   0  0  0  0  0  0  0  0  0  0  0  0
   27.9987  -12.6675    0.0000 C   0  0  0  0  0  0  0  0  0  0  0  0
   29.1984  -14.7697    0.0000 C   0  0  0  0  0  0  0  0  0  0  0  0
   24.5211  -19.6422    0.0000 C   0  0  0  0  0  0  0  0  0  0  0  0
   26.6282  -20.8202    0.0000 O   0  0  0  0  0  0  0  0  0  0  0  0
   24.3649  -11.9628    0.0000 C   0  0  0  0  0  0  0  0  0  0  0  0
   26.7875  -11.9687    0.0000 C   0  0  0  0  0  0  0  0  0  0  0  0
   23.1537  -14.0593    0.0000 C   0  0  0  0  0  0  0  0  0  0  0  0
   23.8293  -20.8541    0.0000 O   0  0  0  0  0  0  0  0  0  0  0  0
   25.9344  -22.0403    0.0000 C   0  0  0  0  0  0  0  0  0  0  0  0
   23.1537  -12.6559    0.0000 C   0  0  0  0  0  0  0  0  0  0  0  0
   21.8144  -14.4903    0.0000 O   0  0  0  0  0  0  0  0  0  0  0  0
   21.8201  -12.2190    0.0000 O   0  0  0  0  0  0  0  0  0  0  0  0
   20.9933  -13.3547    0.0000 C   0  0  0  0  0  0  0  0  0  0  0  0
   24.5322  -22.0572    0.0000 C   0  0  0  0  0  0  0  0  0  0  0  0
   29.0171  -19.0456    0.0000 O   0  0  0  0  0  0  0  0  0  0  0  0
   24.3678  -16.1571    0.0000 O   0  0  0  0  0  0  0  0  0  0  0  0
   23.1627  -16.8562    0.0000 C   0  0  0  0  0  0  0  0  0  0  0  0
   34.6500  -16.2400    0.0000 Cl  0  0  0  0  0  0  0  0  0  0  0  0
   28.0247  -15.1856    0.0000 C   0  0  0  0  0  0  0  0  0  0  0  0
   26.8139  -15.8899    0.0000 C   0  0  0  0  0  0  0  0  0  0  0  0
   29.2415  -15.8899    0.0000 C   0  0  0  0  0  0  0  0  0  0  0  0
   28.0306  -13.7884    0.0000 O   0  0  0  0  0  0  0  0  0  0  0  0
   26.8139  -17.2930    0.0000 C   0  0  0  0  0  0  0  0  0  0  0  0
   25.6030  -15.1856    0.0000 C   0  0  0  0  0  0  0  0  0  0  0  0
   29.2358  -17.2930    0.0000 C   0  0  0  0  0  0  0  0  0  0  0  0
   30.4465  -15.1856    0.0000 C   0  0  0  0  0  0  0  0  0  0  0  0
   29.2415  -13.0840    0.0000 C   0  0  0  0  0  0  0  0  0  0  0  0
   25.6030  -17.9856    0.0000 C   0  0  0  0  0  0  0  0  0  0  0  0
   24.3862  -15.8899    0.0000 C   0  0  0  0  0  0  0  0  0  0  0  0
   30.4465  -17.9856    0.0000 C   0  0  0  0  0  0  0  0  0  0  0  0
   31.6632  -15.8899    0.0000 C   0  0  0  0  0  0  0  0  0  0  0  0
   24.3862  -17.2930    0.0000 C   0  0  0  0  0  0  0  0  0  0  0  0
   31.6573  -17.2930    0.0000 C   0  0  0  0  0  0  0  0  0  0  0  0
   30.4774  -13.7950    0.0000 C   0  0  0  0  0  0  0  0  0  0  0  0
   31.6739  -13.1016    0.0000 N   0  0  0  0  0  0  0  0  0  0  0  0
   32.8632  -13.7857    0.0000 C   0  0  0  0  0  0  0  0  0  0  0  0
   31.6717  -11.6927    0.0000 C   0  0  0  0  0  0  0  0  0  0  0  0
  1  2  2  0
  1  3  1  0
  1  4  1  0
  2  5  1  0
  2  6  1  0
  3  7  1  0
  3  8  1  0
  4  9  1  0
  4 10  2  0
  5 11  1  0
  5 12  1  0
  7 13  1  0
  9 14  1  0
 11 15  2  0
 13 16  1  0
 13 17  1  0
 16 18  1  0
  6  8  2  0
  9 11  1  0
 24 19  2  0
 23 25  1  0
 19 20  1  0
 25 26  1  0
 20 21  2  0
 26 27  1  0
 21 22  1  0
 27 28  1  0
 22 23  2  0
 25 29  1  1
 23 24  1  0
 26 30  1  1
 32 33  1  0
 32 34  1  0
 32 35  2  0
 33 36  2  0
 33 37  1  0
 34 38  1  0
 34 39  2  0
 35 40  1  0
 36 41  1  0
 37 42  2  0
 38 43  1  0
 40 44  1  0
 41 45  1  0
 43 46  2  0
 43 47  1  0
 44 48  1  0
 45 49  1  0
 46 50  1  0
 47 51  2  0
 50 52  2  0
 50 53  1  0
 52 54  1  0
 39 42  1  0
 40 41  2  0
 51 52  1  0
 53 55  1  0
 54 56  1  0
 59 62  2  0
 59 63  1  0
 60 64  1  0
 60 65  1  1
 61 66  1  0
 62 67  1  0
 63 68  2  0
 64 69  2  0
 64 70  1  0
 65 71  1  0
 65 72  1  0
 67 73  2  0
 67 74  1  0
 69 75  1  0
 69 76  1  0
 70 77  2  0
 73 78  1  0
 74 79  1  0
 75 80  2  0
 77 81  1  0
 80 82  1  0
 81 83  1  0
 62 66  1  0
 68 73  1  0
 71 76  1  0
 77 80  1  0
 82 83  1  0
 78 84  1  0
 58 59  1  0
 66 85  2  0
 58 60  1  0
 70 86  1  0
 58 61  1  1
 86 87  1  0
 93 98  2  0
 94 99  1  0
 95100  2  0
 96101  1  0
 98102  1  0
100103  1  0
 99102  2  0
101103  2  0
 89 90  1  0
 89 91  1  0
 89 92  1  0
 90 93  1  0
 90 94  2  0
 91 95  1  0
 91 96  2  0
 92 97  1  0
 97104  1  0
104105  1  0
105106  1  0
105107  1  0
M  END
