 
     RDKit          2D

 42 46  0  0  0  0  0  0  0  0999 V2000
   18.2700  -16.5200    0.0000 C   0  0  0  0  0  0  0  0  0  0  0  0
   17.0800  -17.2900    0.0000 C   0  0  0  0  0  0  0  0  0  0  0  0
   18.2700  -15.1200    0.0000 C   0  0  0  0  0  0  0  0  0  0  0  0
   19.4600  -17.2200    0.0000 C   0  0  0  0  0  0  0  0  0  0  0  0
   17.0800  -18.6900    0.0000 C   0  0  0  0  0  0  0  0  0  0  0  0
   15.8200  -16.5900    0.0000 C   0  0  0  0  0  0  0  0  0  0  0  0
   19.3900  -14.3500    0.0000 N   0  0  0  0  0  0  0  0  0  0  0  0
   17.1500  -14.3500    0.0000 N   0  0  0  0  0  0  0  0  0  0  0  0
   19.4600  -18.6200    0.0000 C   0  0  0  0  0  0  0  0  0  0  0  0
   18.2700  -19.3200    0.0000 C   0  0  0  0  0  0  0  0  0  0  0  0
   15.8200  -19.3200    0.0000 C   0  0  0  0  0  0  0  0  0  0  0  0
   14.6300  -17.2900    0.0000 C   0  0  0  0  0  0  0  0  0  0  0  0
   18.9700  -13.0200    0.0000 C   0  0  0  0  0  0  0  0  0  0  0  0
   17.5700  -13.0200    0.0000 C   0  0  0  0  0  0  0  0  0  0  0  0
   14.6300  -18.6900    0.0000 C   0  0  0  0  0  0  0  0  0  0  0  0
   21.4900  -18.0600    0.0000 Cl  0  0  0  0  0  0  0  0  0  0  0  0
    5.9500  -12.1800    0.0000 C   0  0  0  0  0  0  0  0  0  0  0  0
    5.9500  -13.5800    0.0000 C   0  0  0  0  0  0  0  0  0  0  0  0
    7.1624  -14.2800    0.0000 C   0  0  0  0  0  0  0  0  0  0  0  0
    8.3749  -13.5800    0.0000 C   0  0  0  0  0  0  0  0  0  0  0  0
    8.3749  -12.1800    0.0000 C   0  0  0  0  0  0  0  0  0  0  0  0
    7.1624  -11.4800    0.0000 C   0  0  0  0  0  0  0  0  0  0  0  0
    9.5873  -14.2800    0.0000 C   0  0  0  0  0  0  0  0  0  0  0  0
   10.7997  -13.5800    0.0000 C   0  0  0  0  0  0  0  0  0  0  0  0
   10.7997  -12.1800    0.0000 C   0  0  0  0  0  0  0  0  0  0  0  0
    9.5873  -11.4800    0.0000 C   0  0  0  0  0  0  0  0  0  0  0  0
   12.0122  -11.4800    0.0000 C   0  0  0  0  0  0  0  0  0  0  0  0
   12.0122  -10.0800    0.0000 C   0  0  0  0  0  0  0  0  0  0  0  0
   10.7997   -9.3800    0.0000 C   0  0  0  0  0  0  0  0  0  0  0  0
    9.5873  -10.0800    0.0000 C   0  0  0  0  0  0  0  0  0  0  0  0
   14.4370  -11.4800    0.0000 C   0  0  0  0  0  0  0  0  0  0  0  0
   14.4370  -10.0800    0.0000 C   0  0  0  0  0  0  0  0  0  0  0  0
   13.2246   -9.3800    0.0000 C   0  0  0  0  0  0  0  0  0  0  0  0
    4.7376  -14.2800    0.0000 O   0  0  0  0  0  0  0  0  0  0  0  0
    8.3749  -10.7800    0.0000 C   0  0  0  0  0  0  0  0  0  0  0  0
    8.3769   -9.3812    0.0000 O   0  0  0  0  0  0  0  0  0  0  0  0
   12.0122   -8.6800    0.0000 C   0  0  0  0  0  0  0  0  0  0  0  0
   13.2246   -7.7700    0.0000 C   0  0  0  0  0  0  0  0  0  0  0  0
   14.4370   -8.6800    0.0000 O   0  0  0  0  0  0  0  0  0  0  0  0
   14.4411   -7.0677    0.0000 C   0  0  0  0  0  0  0  0  0  0  0  0
   12.0162   -7.0723    0.0000 O   0  0  0  0  0  0  0  0  0  0  0  0
   15.6386   -7.7592    0.0000 O   0  0  0  0  0  0  0  0  0  0  0  0
  1  2  1  0
  1  3  1  0
  1  4  1  0
  2  5  2  0
  2  6  1  0
  3  7  1  0
  3  8  2  0
  4  9  1  0
  5 10  1  0
  5 11  1  0
  6 12  2  0
  7 13  1  0
  8 14  1  0
 11 15  2  0
  9 10  1  0
 12 15  1  0
 13 14  1  0
 17 18  1  0
 18 19  1  0
 19 20  2  0
 20 21  1  0
 21 22  1  0
 17 22  2  0
 20 23  1  0
 23 24  1  0
 25 24  1  6
 25 26  1  0
 21 26  1  0
 25 27  1  0
 27 28  1  0
 28 29  1  0
 29 30  1  0
 26 30  1  1
 27 31  1  1
 31 32  1  0
 32 33  1  0
 28 33  1  0
 18 34  2  0
 21 35  1  1
 30 36  1  1
 28 37  1  1
 33 38  1  0
 33 39  1  6
 38 40  1  0
 38 41  2  0
 40 42  1  0
M  END
