 
     RDKit          2D

 89 93  0  0  0  0  0  0  0  0999 V2000
   28.1400  -17.7100    0.0000 C   0  0  0  0  0  0  0  0  0  0  0  0
   28.1400  -19.1100    0.0000 C   0  0  0  0  0  0  0  0  0  0  0  0
   26.8100  -17.2900    0.0000 N   0  0  0  0  0  0  0  0  0  0  0  0
   29.3300  -17.0100    0.0000 C   0  0  0  0  0  0  0  0  0  0  0  0
   29.3300  -19.8100    0.0000 N   0  0  0  0  0  0  0  0  0  0  0  0
   26.8100  -19.6000    0.0000 N   0  0  0  0  0  0  0  0  0  0  0  0
   25.6200  -16.5900    0.0000 C   0  0  0  0  0  0  0  0  0  0  0  0
   25.9700  -18.4800    0.0000 C   0  0  0  0  0  0  0  0  0  0  0  0
   30.5900  -17.7100    0.0000 N   0  0  0  0  0  0  0  0  0  0  0  0
   29.3300  -15.6100    0.0000 O   0  0  0  0  0  0  0  0  0  0  0  0
   30.5900  -19.1100    0.0000 C   0  0  0  0  0  0  0  0  0  0  0  0
   29.3300  -21.2800    0.0000 C   0  0  0  0  0  0  0  0  0  0  0  0
   24.4300  -17.2900    0.0000 C   0  0  0  0  0  0  0  0  0  0  0  0
   31.7800  -17.0100    0.0000 C   0  0  0  0  0  0  0  0  0  0  0  0
   31.7800  -19.8100    0.0000 O   0  0  0  0  0  0  0  0  0  0  0  0
   23.1700  -16.5900    0.0000 C   0  0  0  0  0  0  0  0  0  0  0  0
   24.4300  -18.6900    0.0000 O   0  0  0  0  0  0  0  0  0  0  0  0
   21.9800  -17.2900    0.0000 O   0  0  0  0  0  0  0  0  0  0  0  0
   21.5728  -27.3122    0.0000 Cl  0  0  0  0  0  0  0  0  0  0  0  0
   11.0600  -24.5700    0.0000 C   0  0  0  0  0  0  0  0  0  0  0  0
   11.0600  -25.9700    0.0000 C   0  0  0  0  0  0  0  0  0  0  0  0
   12.2724  -26.6700    0.0000 C   0  0  0  0  0  0  0  0  0  0  0  0
   13.4849  -25.9700    0.0000 C   0  0  0  0  0  0  0  0  0  0  0  0
   13.4849  -24.5700    0.0000 C   0  0  0  0  0  0  0  0  0  0  0  0
   12.2724  -23.8700    0.0000 C   0  0  0  0  0  0  0  0  0  0  0  0
   14.7160  -23.8590    0.0000 C   0  0  0  0  0  0  0  0  0  0  0  0
   15.9212  -24.5547    0.0000 C   0  0  0  0  0  0  0  0  0  0  0  0
   17.1035  -23.8719    0.0000 N   0  0  0  0  0  0  0  0  0  0  0  0
   14.7160  -26.6810    0.0000 O   0  0  0  0  0  0  0  0  0  0  0  0
   14.7160  -28.0810    0.0000 C   0  0  0  0  0  0  0  0  0  0  0  0
   15.9216  -25.9696    0.0000 C   0  0  0  0  0  0  0  0  0  0  0  0
   18.2975  -24.5612    0.0000 C   0  0  0  0  0  0  0  0  0  0  0  0
   26.8283  -16.1596    0.0000 C   0  0  0  0  0  0  0  0  0  0  0  0
   25.8983  -17.2080    0.0000 C   0  0  0  0  0  0  0  0  0  0  0  0
   26.7758  -14.7697    0.0000 C   0  0  0  0  0  0  0  0  0  0  0  0
   28.1172  -16.7179    0.0000 O   0  0  0  0  0  0  0  0  0  0  0  0
   26.6059  -18.4199    0.0000 C   0  0  0  0  0  0  0  0  0  0  0  0
   24.5020  -17.2133    0.0000 C   0  0  0  0  0  0  0  0  0  0  0  0
   25.5646  -14.0593    0.0000 C   0  0  0  0  0  0  0  0  0  0  0  0
   27.9930  -14.0709    0.0000 N   0  0  0  0  0  0  0  0  0  0  0  0
   27.9765  -18.1191    0.0000 C   0  0  0  0  0  0  0  0  0  0  0  0
   25.9243  -19.6962    0.0000 C   0  0  0  0  0  0  0  0  0  0  0  0
   23.8113  -18.4381    0.0000 C   0  0  0  0  0  0  0  0  0  0  0  0
   25.5704  -12.6616    0.0000 C   0  0  0  0  0  0  0  0  0  0  0  0
   24.3649  -14.7638    0.0000 C   0  0  0  0  0  0  0  0  0  0  0  0
   27.9987  -12.6675    0.0000 C   0  0  0  0  0  0  0  0  0  0  0  0
   29.1984  -14.7697    0.0000 C   0  0  0  0  0  0  0  0  0  0  0  0
   24.5211  -19.6422    0.0000 C   0  0  0  0  0  0  0  0  0  0  0  0
   26.6282  -20.8202    0.0000 O   0  0  0  0  0  0  0  0  0  0  0  0
   24.3649  -11.9628    0.0000 C   0  0  0  0  0  0  0  0  0  0  0  0
   26.7875  -11.9687    0.0000 C   0  0  0  0  0  0  0  0  0  0  0  0
   23.1537  -14.0593    0.0000 C   0  0  0  0  0  0  0  0  0  0  0  0
   23.8293  -20.8541    0.0000 O   0  0  0  0  0  0  0  0  0  0  0  0
   25.9344  -22.0403    0.0000 C   0  0  0  0  0  0  0  0  0  0  0  0
   23.1537  -12.6559    0.0000 C   0  0  0  0  0  0  0  0  0  0  0  0
   21.8144  -14.4903    0.0000 O   0  0  0  0  0  0  0  0  0  0  0  0
   21.8201  -12.2190    0.0000 O   0  0  0  0  0  0  0  0  0  0  0  0
   20.9933  -13.3547    0.0000 C   0  0  0  0  0  0  0  0  0  0  0  0
   24.5322  -22.0572    0.0000 C   0  0  0  0  0  0  0  0  0  0  0  0
   29.0171  -19.0456    0.0000 O   0  0  0  0  0  0  0  0  0  0  0  0
   24.3678  -16.1571    0.0000 O   0  0  0  0  0  0  0  0  0  0  0  0
   23.1627  -16.8562    0.0000 C   0  0  0  0  0  0  0  0  0  0  0  0
   19.2774  -11.8495    0.0000 C   0  0  0  0  0  0  0  0  0  0  0  0
   17.7264  -11.8554    0.0000 C   0  0  0  0  0  0  0  0  0  0  0  0
   19.9250  -12.9665    0.0000 C   0  0  0  0  0  0  0  0  0  0  0  0
   17.0845  -12.9784    0.0000 C   0  0  0  0  0  0  0  0  0  0  0  0
   19.2832  -14.0898    0.0000 O   0  0  0  0  0  0  0  0  0  0  0  0
   21.2204  -12.9607    0.0000 O   0  0  0  0  0  0  0  0  0  0  0  0
   15.7890  -12.9784    0.0000 O   0  0  0  0  0  0  0  0  0  0  0  0
   17.7381  -14.0956    0.0000 O   0  0  0  0  0  0  0  0  0  0  0  0
    7.0000  -14.8400    0.0000 C   0  0  0  0  0  0  0  0  0  0  0  0
    7.0000  -16.2400    0.0000 C   0  0  0  0  0  0  0  0  0  0  0  0
    8.2124  -16.9400    0.0000 C   0  0  0  0  0  0  0  0  0  0  0  0
    9.4249  -16.2400    0.0000 C   0  0  0  0  0  0  0  0  0  0  0  0
    9.4249  -14.8400    0.0000 C   0  0  0  0  0  0  0  0  0  0  0  0
    8.2124  -14.1400    0.0000 C   0  0  0  0  0  0  0  0  0  0  0  0
   11.8497  -16.2400    0.0000 C   0  0  0  0  0  0  0  0  0  0  0  0
   11.8497  -14.8400    0.0000 C   0  0  0  0  0  0  0  0  0  0  0  0
   10.6373  -14.1400    0.0000 C   0  0  0  0  0  0  0  0  0  0  0  0
   13.0622  -16.9400    0.0000 C   0  0  0  0  0  0  0  0  0  0  0  0
   14.2746  -16.2400    0.0000 C   0  0  0  0  0  0  0  0  0  0  0  0
   14.2746  -14.8400    0.0000 C   0  0  0  0  0  0  0  0  0  0  0  0
   13.0622  -14.1400    0.0000 N   0  0  0  0  0  0  0  0  0  0  0  0
    5.7876  -16.9400    0.0000 Cl  0  0  0  0  0  0  0  0  0  0  0  0
   10.6373  -12.7400    0.0000 C   0  0  0  0  0  0  0  0  0  0  0  0
   11.8518  -12.0388    0.0000 C   0  0  0  0  0  0  0  0  0  0  0  0
   11.8518  -10.6402    0.0000 N   0  0  0  0  0  0  0  0  0  0  0  0
   13.0479   -9.9495    0.0000 C   0  0  0  0  0  0  0  0  0  0  0  0
   10.6230   -9.9306    0.0000 C   0  0  0  0  0  0  0  0  0  0  0  0
  1  2  2  0
  1  3  1  0
  1  4  1  0
  2  5  1  0
  2  6  1  0
  3  7  1  0
  3  8  1  0
  4  9  1  0
  4 10  2  0
  5 11  1  0
  5 12  1  0
  7 13  1  0
  9 14  1  0
 11 15  2  0
 13 16  1  0
 13 17  1  0
 16 18  1  0
  6  8  2  0
  9 11  1  0
 20 21  2  0
 21 22  1  0
 22 23  2  0
 23 24  1  0
 24 25  2  0
 20 25  1  0
 24 26  1  0
 26 27  1  0
 27 28  1  0
 23 29  1  0
 29 30  1  0
 27 31  1  0
 28 32  1  0
 34 37  2  0
 34 38  1  0
 35 39  1  0
 35 40  1  1
 36 41  1  0
 37 42  1  0
 38 43  2  0
 39 44  2  0
 39 45  1  0
 40 46  1  0
 40 47  1  0
 42 48  2  0
 42 49  1  0
 44 50  1  0
 44 51  1  0
 45 52  2  0
 48 53  1  0
 49 54  1  0
 50 55  2  0
 52 56  1  0
 55 57  1  0
 56 58  1  0
 37 41  1  0
 43 48  1  0
 46 51  1  0
 52 55  1  0
 57 58  1  0
 53 59  1  0
 33 34  1  0
 41 60  2  0
 33 35  1  0
 45 61  1  0
 33 36  1  1
 61 62  1  0
 63 64  2  0
 63 65  1  0
 64 66  1  0
 65 67  1  0
 65 68  2  0
 66 69  1  0
 66 70  2  0
 71 72  2  0
 72 73  1  0
 73 74  2  0
 74 75  1  0
 75 76  2  0
 71 76  1  0
 77 78  2  0
 78 79  1  0
 75 79  1  0
 77 80  1  0
 80 81  2  0
 81 82  1  0
 82 83  2  0
 78 83  1  0
 72 84  1  0
 79 85  1  0
 85 86  1  0
 86 87  1  0
 87 88  1  0
 87 89  1  0
M  END
