 
     RDKit          2D

 27 30  0  0  1  0  0  0  0  0999 V2000
   26.6700  -18.6900    0.0000 C   0  0  0  0  0  0  0  0  0  0  0  0
   26.6700  -20.0900    0.0000 C   0  0  0  0  0  0  0  0  0  0  0  0
   27.8600  -20.7900    0.0000 C   0  0  0  0  0  0  0  0  0  0  0  0
   29.1200  -20.0900    0.0000 C   0  0  0  0  0  0  0  0  0  0  0  0
   29.1200  -18.6900    0.0000 C   0  0  0  0  0  0  0  0  0  0  0  0
   27.8600  -17.9900    0.0000 C   0  0  0  0  0  0  0  0  0  0  0  0
   30.3100  -20.7900    0.0000 C   0  0  0  0  0  0  0  0  0  0  0  0
   31.5000  -20.0900    0.0000 C   0  0  0  0  0  0  0  0  0  0  0  0
   31.5000  -18.6900    0.0000 C   0  0  0  0  0  0  0  0  0  0  0  0
   30.3100  -17.9900    0.0000 C   0  0  0  0  0  0  0  0  0  0  0  0
   32.7600  -17.9900    0.0000 C   0  0  0  0  0  0  0  0  0  0  0  0
   32.7600  -16.5900    0.0000 C   0  0  0  0  0  0  0  0  0  0  0  0
   31.5000  -15.8900    0.0000 C   0  0  0  0  0  0  0  0  0  0  0  0
   30.3100  -16.5900    0.0000 C   0  0  0  0  0  0  0  0  0  0  0  0
   35.1400  -17.9900    0.0000 C   0  0  0  0  0  0  0  0  0  0  0  0
   35.1400  -16.5900    0.0000 C   0  0  0  0  0  0  0  0  0  0  0  0
   33.9500  -15.8900    0.0000 C   0  0  0  0  0  0  0  0  0  0  0  0
   25.4800  -20.7900    0.0000 O   0  0  0  0  0  0  0  0  0  0  0  0
   29.1200  -17.2900    0.0000 C   0  0  0  0  0  0  0  0  0  0  0  0
   29.1200  -15.8900    0.0000 O   0  0  0  0  0  0  0  0  0  0  0  0
   32.7600  -15.1900    0.0000 C   0  0  0  0  0  0  0  0  0  0  0  0
   33.9500  -14.2100    0.0000 C   0  0  0  0  0  0  0  0  0  0  0  0
   30.3100  -22.1900    0.0000 C   0  0  0  0  0  0  0  0  0  0  0  0
   35.1400  -15.1900    0.0000 O   0  0  0  0  0  0  0  0  0  0  0  0
   35.1400  -13.5100    0.0000 C   0  0  0  0  0  0  0  0  0  0  0  0
   32.7600  -13.5100    0.0000 O   0  0  0  0  0  0  0  0  0  0  0  0
   36.3300  -14.2100    0.0000 O   0  0  0  0  0  0  0  0  0  0  0  0
  1  2  1  0
  2  3  1  0
  3  4  2  0
  4  5  1  0
  5  6  1  0
  1  6  2  0
  4  7  1  0
  7  8  1  0
  9  8  1  6
  9 10  1  0
  5 10  1  0
  9 11  1  0
 11 12  1  0
 12 13  1  0
 13 14  1  0
 10 14  1  1
 11 15  1  1
 15 16  1  0
 16 17  1  0
 12 17  1  0
  2 18  2  0
  5 19  1  1
 14 20  1  1
 12 21  1  1
 17 22  1  0
  7 23  1  6
 17 24  1  6
 22 25  1  0
 22 26  2  0
 25 27  1  0
M  END
