 
     RDKit          2D

 32 32  0  0  0  0  0  0  0  0999 V2000
   27.6287  -17.1735    0.0000 C   0  0  0  0  0  0  0  0  0  0  0  0
   27.6287  -18.5731    0.0000 C   0  0  0  0  0  0  0  0  0  0  0  0
   28.8416  -19.2728    0.0000 C   0  0  0  0  0  0  0  0  0  0  0  0
   30.0545  -18.5731    0.0000 C   0  0  0  0  0  0  0  0  0  0  0  0
   30.0545  -17.1735    0.0000 C   0  0  0  0  0  0  0  0  0  0  0  0
   28.8416  -16.4738    0.0000 C   0  0  0  0  0  0  0  0  0  0  0  0
   31.2674  -16.4738    0.0000 C   0  0  0  0  0  0  0  0  0  0  0  0
   32.4804  -17.1735    0.0000 C   0  0  0  0  0  0  0  0  0  0  0  0
   33.6933  -16.4738    0.0000 N   0  0  0  0  0  0  0  0  0  0  0  0
   34.9062  -17.1735    0.0000 C   0  0  0  0  0  0  0  0  0  0  0  0
   32.4804  -18.5731    0.0000 C   0  0  0  0  0  0  0  0  0  0  0  0
   31.2674  -15.0743    0.0000 O   0  0  0  0  0  0  0  0  0  0  0  0
   33.6933  -15.0743    0.0000 C   0  0  0  0  0  0  0  0  0  0  0  0
   39.4336  -16.9402    0.0000 Cl  0  0  0  0  0  0  0  0  0  0  0  0
   28.1400  -17.7100    0.0000 C   0  0  0  0  0  0  0  0  0  0  0  0
   28.1400  -19.1100    0.0000 C   0  0  0  0  0  0  0  0  0  0  0  0
   26.8100  -17.2900    0.0000 N   0  0  0  0  0  0  0  0  0  0  0  0
   29.3300  -17.0100    0.0000 C   0  0  0  0  0  0  0  0  0  0  0  0
   29.3300  -19.8100    0.0000 N   0  0  0  0  0  0  0  0  0  0  0  0
   26.8100  -19.6000    0.0000 N   0  0  0  0  0  0  0  0  0  0  0  0
   25.6200  -16.5900    0.0000 C   0  0  0  0  0  0  0  0  0  0  0  0
   25.9700  -18.4800    0.0000 C   0  0  0  0  0  0  0  0  0  0  0  0
   30.5900  -17.7100    0.0000 N   0  0  0  0  0  0  0  0  0  0  0  0
   29.3300  -15.6100    0.0000 O   0  0  0  0  0  0  0  0  0  0  0  0
   30.5900  -19.1100    0.0000 C   0  0  0  0  0  0  0  0  0  0  0  0
   29.3300  -21.2800    0.0000 C   0  0  0  0  0  0  0  0  0  0  0  0
   24.4300  -17.2900    0.0000 C   0  0  0  0  0  0  0  0  0  0  0  0
   31.7800  -17.0100    0.0000 C   0  0  0  0  0  0  0  0  0  0  0  0
   31.7800  -19.8100    0.0000 O   0  0  0  0  0  0  0  0  0  0  0  0
   23.1700  -16.5900    0.0000 C   0  0  0  0  0  0  0  0  0  0  0  0
   24.4300  -18.6900    0.0000 O   0  0  0  0  0  0  0  0  0  0  0  0
   21.9800  -17.2900    0.0000 O   0  0  0  0  0  0  0  0  0  0  0  0
  1  2  2  0
  2  3  1  0
  3  4  2  0
  4  5  1  0
  5  6  2  0
  1  6  1  0
  5  7  1  0
  7  8  1  0
  8  9  1  0
  9 10  1  0
  8 11  1  0
  7 12  1  0
  9 13  1  0
 15 16  2  0
 15 17  1  0
 15 18  1  0
 16 19  1  0
 16 20  1  0
 17 21  1  0
 17 22  1  0
 18 23  1  0
 18 24  2  0
 19 25  1  0
 19 26  1  0
 21 27  1  0
 23 28  1  0
 25 29  2  0
 27 30  1  0
 27 31  1  0
 30 32  1  0
 20 22  2  0
 23 25  1  0
M  END
