 
     RDKit          2D

 68 70  0  0  1  0  0  0  0  0999 V2000
    7.1291  -11.7332    0.0000 C   0  0  0  0  0  0  0  0  0  0  0  0
    7.1349  -10.4399    0.0000 C   0  0  0  0  0  0  0  0  0  0  0  0
    8.2478  -12.3917    0.0000 C   0  0  0  0  0  0  0  0  0  0  0  0
    6.0047  -12.3917    0.0000 C   0  0  0  0  0  0  0  0  0  0  0  0
    8.0556  -10.8244    0.0000 C   0  0  0  0  0  0  0  0  0  0  0  0
    6.0280   -9.7816    0.0000 C   0  0  0  0  0  0  0  0  0  0  0  0
    8.2653   -9.8049    0.0000 C   0  0  0  0  0  0  0  0  0  0  0  0
    9.3839  -11.7507    0.0000 C   0  0  0  0  0  0  0  0  0  0  0  0
    8.2536  -13.6910    0.0000 C   0  0  0  0  0  0  0  0  0  0  0  0
    4.7521  -11.0749    0.0000 O   0  0  0  0  0  0  0  0  0  0  0  0
    6.0047  -13.6910    0.0000 C   0  0  0  0  0  0  0  0  0  0  0  0
   10.4850  -10.8127    0.0000 C   0  0  0  0  0  0  0  0  0  0  0  0
    6.0337   -8.4881    0.0000 C   0  0  0  0  0  0  0  0  0  0  0  0
    9.3897  -10.4516    0.0000 C   0  0  0  0  0  0  0  0  0  0  0  0
    8.2768   -8.5112    0.0000 C   0  0  0  0  0  0  0  0  0  0  0  0
   10.5084  -12.4091    0.0000 N   0  0  0  0  0  0  0  0  0  0  0  0
    7.1291  -14.3376    0.0000 C   0  0  0  0  0  0  0  0  0  0  0  0
    7.1641   -7.8471    0.0000 C   0  0  0  0  0  0  0  0  0  0  0  0
    4.9151   -7.8298    0.0000 O   0  0  0  0  0  0  0  0  0  0  0  0
    4.8799  -14.3415    0.0000 O   0  0  0  0  0  0  0  0  0  0  0  0
    3.7063   -8.5145    0.0000 C   0  0  0  0  0  0  0  0  0  0  0  0
   11.9044  -12.4091    0.0000 C   0  0  0  0  0  0  0  0  0  0  0  0
   16.2129  -11.4022    0.0000 P   0  0  0  0  0  0  0  0  0  0  0  0
   17.5248  -11.4141    0.0000 O   0  0  0  0  0  0  0  0  0  0  0  0
   14.9839  -11.4141    0.0000 O   0  0  0  0  0  0  0  0  0  0  0  0
   16.2720  -12.8330    0.0000 O   0  0  0  0  0  0  0  0  0  0  0  0
   16.2482   -9.7756    0.0000 O   0  0  0  0  0  0  0  0  0  0  0  0
   27.6287  -17.1735    0.0000 C   0  0  0  0  0  0  0  0  0  0  0  0
   27.6287  -18.5731    0.0000 C   0  0  0  0  0  0  0  0  0  0  0  0
   28.8416  -19.2728    0.0000 C   0  0  0  0  0  0  0  0  0  0  0  0
   30.0545  -18.5731    0.0000 C   0  0  0  0  0  0  0  0  0  0  0  0
   30.0545  -17.1735    0.0000 C   0  0  0  0  0  0  0  0  0  0  0  0
   28.8416  -16.4738    0.0000 C   0  0  0  0  0  0  0  0  0  0  0  0
   31.2674  -16.4738    0.0000 C   0  0  0  0  0  0  0  0  0  0  0  0
   32.4804  -17.1735    0.0000 C   0  0  0  0  0  0  0  0  0  0  0  0
   33.6933  -16.4738    0.0000 N   0  0  0  0  0  0  0  0  0  0  0  0
   34.9062  -17.1735    0.0000 C   0  0  0  0  0  0  0  0  0  0  0  0
   32.4804  -18.5731    0.0000 C   0  0  0  0  0  0  0  0  0  0  0  0
   31.2674  -15.0743    0.0000 O   0  0  0  0  0  0  0  0  0  0  0  0
   33.6933  -15.0743    0.0000 C   0  0  0  0  0  0  0  0  0  0  0  0
   39.4336  -16.9402    0.0000 Cl  0  0  0  0  0  0  0  0  0  0  0  0
   19.2774  -11.8495    0.0000 C   0  0  0  0  0  0  0  0  0  0  0  0
   17.7264  -11.8554    0.0000 C   0  0  0  0  0  0  0  0  0  0  0  0
   19.9250  -12.9665    0.0000 C   0  0  0  0  0  0  0  0  0  0  0  0
   17.0845  -12.9784    0.0000 C   0  0  0  0  0  0  0  0  0  0  0  0
   19.2832  -14.0898    0.0000 O   0  0  0  0  0  0  0  0  0  0  0  0
   21.2204  -12.9607    0.0000 O   0  0  0  0  0  0  0  0  0  0  0  0
   15.7890  -12.9784    0.0000 O   0  0  0  0  0  0  0  0  0  0  0  0
   17.7381  -14.0956    0.0000 O   0  0  0  0  0  0  0  0  0  0  0  0
    7.0000  -14.8400    0.0000 C   0  0  0  0  0  0  0  0  0  0  0  0
    7.0000  -16.2400    0.0000 C   0  0  0  0  0  0  0  0  0  0  0  0
    8.2124  -16.9400    0.0000 C   0  0  0  0  0  0  0  0  0  0  0  0
    9.4249  -16.2400    0.0000 C   0  0  0  0  0  0  0  0  0  0  0  0
    9.4249  -14.8400    0.0000 C   0  0  0  0  0  0  0  0  0  0  0  0
    8.2124  -14.1400    0.0000 C   0  0  0  0  0  0  0  0  0  0  0  0
   11.8497  -16.2400    0.0000 C   0  0  0  0  0  0  0  0  0  0  0  0
   11.8497  -14.8400    0.0000 C   0  0  0  0  0  0  0  0  0  0  0  0
   10.6373  -14.1400    0.0000 C   0  0  0  0  0  0  0  0  0  0  0  0
   13.0622  -16.9400    0.0000 C   0  0  0  0  0  0  0  0  0  0  0  0
   14.2746  -16.2400    0.0000 C   0  0  0  0  0  0  0  0  0  0  0  0
   14.2746  -14.8400    0.0000 C   0  0  0  0  0  0  0  0  0  0  0  0
   13.0622  -14.1400    0.0000 N   0  0  0  0  0  0  0  0  0  0  0  0
    5.7876  -16.9400    0.0000 Cl  0  0  0  0  0  0  0  0  0  0  0  0
   10.6373  -12.7400    0.0000 C   0  0  0  0  0  0  0  0  0  0  0  0
   11.8518  -12.0388    0.0000 C   0  0  0  0  0  0  0  0  0  0  0  0
   11.8518  -10.6402    0.0000 N   0  0  0  0  0  0  0  0  0  0  0  0
   13.0479   -9.9495    0.0000 C   0  0  0  0  0  0  0  0  0  0  0  0
   10.6230   -9.9306    0.0000 C   0  0  0  0  0  0  0  0  0  0  0  0
  4 10  1  6
  4 11  1  0
  5 12  1  0
  6 13  1  0
  7 14  1  0
  7 15  2  0
  8 16  1  0
  9 17  1  0
 13 18  2  0
 13 19  1  0
  6 10  1  0
  8 14  1  1
 11 17  1  0
 12 16  1  0
 15 18  1  0
 11 20  1  6
  1  2  1  0
  1  3  1  0
  1  4  1  0
  1  5  1  1
  2  6  2  0
  2  7  1  0
  3  8  1  0
  3  9  1  6
 19 21  1  0
 16 22  1  0
 23 24  1  0
 23 25  1  0
 23 26  1  0
 23 27  2  0
 28 29  2  0
 29 30  1  0
 30 31  2  0
 31 32  1  0
 32 33  2  0
 28 33  1  0
 32 34  1  0
 34 35  1  0
 35 36  1  0
 36 37  1  0
 35 38  1  0
 34 39  1  0
 36 40  1  0
 42 43  2  0
 42 44  1  0
 43 45  1  0
 44 46  1  0
 44 47  2  0
 45 48  1  0
 45 49  2  0
 50 51  2  0
 51 52  1  0
 52 53  2  0
 53 54  1  0
 54 55  2  0
 50 55  1  0
 56 57  2  0
 57 58  1  0
 54 58  1  0
 56 59  1  0
 59 60  2  0
 60 61  1  0
 61 62  2  0
 57 62  1  0
 51 63  1  0
 58 64  1  0
 64 65  1  0
 65 66  1  0
 66 67  1  0
 66 68  1  0
M  END
