 
     RDKit          2D

 47 48  0  0  0  0  0  0  0  0999 V2000
   31.3993  -16.0548    0.0000 N   0  0  0  0  0  0  0  0  0  0  0  0
   32.7383  -16.4757    0.0000 C   0  0  0  0  0  0  0  0  0  0  0  0
   32.7500  -17.8791    0.0000 C   0  0  0  0  0  0  0  0  0  0  0  0
   33.9664  -15.7800    0.0000 C   0  0  0  0  0  0  0  0  0  0  0  0
   33.9664  -18.5809    0.0000 N   0  0  0  0  0  0  0  0  0  0  0  0
   31.4167  -18.3294    0.0000 N   0  0  0  0  0  0  0  0  0  0  0  0
   35.1709  -16.4816    0.0000 N   0  0  0  0  0  0  0  0  0  0  0  0
   33.9664  -14.3824    0.0000 O   0  0  0  0  0  0  0  0  0  0  0  0
   30.5805  -17.2008    0.0000 C   0  0  0  0  0  0  0  0  0  0  0  0
   35.1709  -17.8791    0.0000 C   0  0  0  0  0  0  0  0  0  0  0  0
   33.9664  -19.9785    0.0000 C   0  0  0  0  0  0  0  0  0  0  0  0
   36.3814  -15.7857    0.0000 C   0  0  0  0  0  0  0  0  0  0  0  0
   36.3814  -18.5809    0.0000 O   0  0  0  0  0  0  0  0  0  0  0  0
   31.3993  -14.6548    0.0000 C   0  0  0  0  0  0  0  0  0  0  0  0
   30.1998  -13.9618    0.0000 C   0  0  0  0  0  0  0  0  0  0  0  0
   28.9792  -14.6662    0.0000 C   0  0  0  0  0  0  0  0  0  0  0  0
   30.2008  -12.5303    0.0000 O   0  0  0  0  0  0  0  0  0  0  0  0
   17.0325  -17.0009    0.0000 C   0  0  0  0  0  0  0  0  0  0  0  0
   17.0325  -18.4031    0.0000 C   0  0  0  0  0  0  0  0  0  0  0  0
   18.2497  -19.1041    0.0000 C   0  0  0  0  0  0  0  0  0  0  0  0
   19.4598  -18.4031    0.0000 C   0  0  0  0  0  0  0  0  0  0  0  0
   19.4598  -17.0009    0.0000 C   0  0  0  0  0  0  0  0  0  0  0  0
   18.2497  -16.2999    0.0000 C   0  0  0  0  0  0  0  0  0  0  0  0
   20.6653  -16.2999    0.0000 C   0  0  0  0  0  0  0  0  0  0  0  0
   21.8762  -16.9938    0.0000 C   0  0  0  0  0  0  0  0  0  0  0  0
   23.0872  -16.2927    0.0000 N   0  0  0  0  0  0  0  0  0  0  0  0
   24.2981  -16.9867    0.0000 C   0  0  0  0  0  0  0  0  0  0  0  0
   20.6609  -14.8977    0.0000 O   0  0  0  0  0  0  0  0  0  0  0  0
   21.8793  -18.3959    0.0000 C   0  0  0  0  0  0  0  0  0  0  0  0
   29.1200  -17.5000    0.0000 Cl  0  0  0  0  0  0  0  0  0  0  0  0
   24.5688  -19.5768    0.0000 C   0  0  0  0  0  0  0  0  0  0  0  0
   25.7739  -18.8690    0.0000 C   0  0  0  0  0  0  0  0  0  0  0  0
   23.3288  -18.8924    0.0000 C   0  0  0  0  0  0  0  0  0  0  0  0
   24.5688  -20.9807    0.0000 C   0  0  0  0  0  0  0  0  0  0  0  0
   25.7679  -20.2728    0.0000 C   0  0  0  0  0  0  0  0  0  0  0  0
   26.9847  -19.5534    0.0000 C   0  0  0  0  0  0  0  0  0  0  0  0
   25.7562  -17.4653    0.0000 C   0  0  0  0  0  0  0  0  0  0  0  0
   22.1238  -19.5768    0.0000 N   0  0  0  0  0  0  0  0  0  0  0  0
   23.3288  -17.4770    0.0000 O   0  0  0  0  0  0  0  0  0  0  0  0
   23.3288  -21.6826    0.0000 N   0  0  0  0  0  0  0  0  0  0  0  0
   25.7621  -21.6826    0.0000 O   0  0  0  0  0  0  0  0  0  0  0  0
   27.1718  -20.2728    0.0000 C   0  0  0  0  0  0  0  0  0  0  0  0
   28.1895  -18.8457    0.0000 C   0  0  0  0  0  0  0  0  0  0  0  0
   26.9612  -16.7574    0.0000 C   0  0  0  0  0  0  0  0  0  0  0  0
   22.1238  -20.9807    0.0000 C   0  0  0  0  0  0  0  0  0  0  0  0
   28.1778  -17.4476    0.0000 C   0  0  0  0  0  0  0  0  0  0  0  0
   20.9130  -21.6766    0.0000 O   0  0  0  0  0  0  0  0  0  0  0  0
  2  3  2  0
  2  4  1  0
  2  1  1  0
  3  5  1  0
  3  6  1  0
  4  7  1  0
  4  8  2  0
  1  9  1  0
  5 10  1  0
  5 11  1  0
  7 12  1  0
 10 13  2  0
  6  9  2  0
  7 10  1  0
  1 14  1  0
 14 15  1  0
 15 16  1  0
 15 17  1  0
 23 18  2  0
 22 24  1  0
 18 19  1  0
 24 25  1  0
 19 20  2  0
 25 26  1  0
 20 21  1  0
 26 27  1  0
 21 22  2  0
 24 28  1  1
 22 23  1  0
 25 29  1  1
 31 32  1  0
 31 33  1  0
 31 34  1  0
 31 35  1  0
 32 36  2  0
 32 37  1  0
 33 38  1  0
 33 39  2  0
 34 40  1  0
 34 41  2  0
 35 42  1  0
 36 43  1  0
 37 44  2  0
 38 45  1  0
 43 46  2  0
 45 47  2  0
 40 45  1  0
 44 46  1  0
M  END
