 
     RDKit          2D

 23 26  0  0  1  0  0  0  0  0999 V2000
   19.3438  -16.4308    0.0000 C   0  0  0  0  0  0  0  0  0  0  0  0
   19.4619  -15.4691    0.0000 C   0  0  0  0  0  0  0  0  0  0  0  0
   20.5155  -16.1496    0.0000 C   0  0  0  0  0  0  0  0  0  0  0  0
   20.8436  -14.9779    0.0000 C   0  0  0  0  0  0  0  0  0  0  0  0
   19.5782  -13.6656    0.0000 N   0  0  0  0  0  0  0  0  0  0  0  0
   22.3902  -16.1496    0.0000 C   0  0  0  0  0  0  0  0  0  0  0  0
   22.1090  -14.9779    0.0000 C   0  0  0  0  0  0  0  0  0  0  0  0
   23.4213  -16.7120    0.0000 C   0  0  0  0  0  0  0  0  0  0  0  0
   24.4993  -17.6025    0.0000 N   0  0  0  0  0  0  0  0  0  0  0  0
   25.7179  -17.6025    0.0000 C   0  0  0  0  0  0  0  0  0  0  0  0
   26.3272  -16.5245    0.0000 C   0  0  0  0  0  0  0  0  0  0  0  0
   26.3272  -18.7273    0.0000 O   0  0  0  0  0  0  0  0  0  0  0  0
   18.8291  -12.4814    0.0000 C   0  0  0  0  0  0  0  0  0  0  0  0
   18.2878  -14.9430    0.0000 C   0  0  0  0  0  0  0  0  0  0  0  0
   27.7272  -16.5245    0.0000 C   0  0  0  0  0  0  0  0  0  0  0  0
   28.1598  -15.1930    0.0000 C   0  0  0  0  0  0  0  0  0  0  0  0
   27.0272  -14.3701    0.0000 N   0  0  0  0  0  0  0  0  0  0  0  0
   25.8946  -15.1930    0.0000 N   0  0  0  0  0  0  0  0  0  0  0  0
   28.6640  -17.5649    0.0000 C   0  0  0  0  0  0  0  0  0  0  0  0
   30.0334  -17.2738    0.0000 C   0  0  0  0  0  0  0  0  0  0  0  0
   30.4660  -15.9423    0.0000 C   0  0  0  0  0  0  0  0  0  0  0  0
   29.5292  -14.9019    0.0000 C   0  0  0  0  0  0  0  0  0  0  0  0
   27.0273  -12.9500    0.0000 C   0  0  0  0  0  0  0  0  0  0  0  0
  3  1  1  6
  4  2  1  1
  3  5  1  0
  3  6  1  0
  4  7  1  0
  6  8  1  0
  8  9  1  0
  9 10  1  0
 10 11  1  0
 10 12  2  0
  4  5  1  0
  7  8  1  0
  5 13  1  0
  2 14  1  0
  1 14  1  0
 11 15  1  0
 15 16  2  0
 16 17  1  0
 17 18  1  0
 11 18  2  0
 15 19  1  0
 19 20  2  0
 20 21  1  0
 21 22  2  0
 16 22  1  0
 17 23  1  0
M  END
