 
     RDKit          2D

 71 74  0  0  0  0  0  0  0  0999 V2000
   27.6287  -17.1735    0.0000 C   0  0  0  0  0  0  0  0  0  0  0  0
   27.6287  -18.5731    0.0000 C   0  0  0  0  0  0  0  0  0  0  0  0
   28.8416  -19.2728    0.0000 C   0  0  0  0  0  0  0  0  0  0  0  0
   30.0545  -18.5731    0.0000 C   0  0  0  0  0  0  0  0  0  0  0  0
   30.0545  -17.1735    0.0000 C   0  0  0  0  0  0  0  0  0  0  0  0
   28.8416  -16.4738    0.0000 C   0  0  0  0  0  0  0  0  0  0  0  0
   31.2674  -16.4738    0.0000 C   0  0  0  0  0  0  0  0  0  0  0  0
   32.4804  -17.1735    0.0000 C   0  0  0  0  0  0  0  0  0  0  0  0
   33.6933  -16.4738    0.0000 N   0  0  0  0  0  0  0  0  0  0  0  0
   34.9062  -17.1735    0.0000 C   0  0  0  0  0  0  0  0  0  0  0  0
   32.4804  -18.5731    0.0000 C   0  0  0  0  0  0  0  0  0  0  0  0
   31.2674  -15.0743    0.0000 O   0  0  0  0  0  0  0  0  0  0  0  0
   33.6933  -15.0743    0.0000 C   0  0  0  0  0  0  0  0  0  0  0  0
   39.4336  -16.9402    0.0000 Cl  0  0  0  0  0  0  0  0  0  0  0  0
   26.8283  -16.1596    0.0000 C   0  0  0  0  0  0  0  0  0  0  0  0
   25.8983  -17.2080    0.0000 C   0  0  0  0  0  0  0  0  0  0  0  0
   26.7758  -14.7697    0.0000 C   0  0  0  0  0  0  0  0  0  0  0  0
   28.1172  -16.7179    0.0000 O   0  0  0  0  0  0  0  0  0  0  0  0
   26.6059  -18.4199    0.0000 C   0  0  0  0  0  0  0  0  0  0  0  0
   24.5020  -17.2133    0.0000 C   0  0  0  0  0  0  0  0  0  0  0  0
   25.5646  -14.0593    0.0000 C   0  0  0  0  0  0  0  0  0  0  0  0
   27.9930  -14.0709    0.0000 N   0  0  0  0  0  0  0  0  0  0  0  0
   27.9765  -18.1191    0.0000 C   0  0  0  0  0  0  0  0  0  0  0  0
   25.9243  -19.6962    0.0000 C   0  0  0  0  0  0  0  0  0  0  0  0
   23.8113  -18.4381    0.0000 C   0  0  0  0  0  0  0  0  0  0  0  0
   25.5704  -12.6616    0.0000 C   0  0  0  0  0  0  0  0  0  0  0  0
   24.3649  -14.7638    0.0000 C   0  0  0  0  0  0  0  0  0  0  0  0
   27.9987  -12.6675    0.0000 C   0  0  0  0  0  0  0  0  0  0  0  0
   29.1984  -14.7697    0.0000 C   0  0  0  0  0  0  0  0  0  0  0  0
   24.5211  -19.6422    0.0000 C   0  0  0  0  0  0  0  0  0  0  0  0
   26.6282  -20.8202    0.0000 O   0  0  0  0  0  0  0  0  0  0  0  0
   24.3649  -11.9628    0.0000 C   0  0  0  0  0  0  0  0  0  0  0  0
   26.7875  -11.9687    0.0000 C   0  0  0  0  0  0  0  0  0  0  0  0
   23.1537  -14.0593    0.0000 C   0  0  0  0  0  0  0  0  0  0  0  0
   23.8293  -20.8541    0.0000 O   0  0  0  0  0  0  0  0  0  0  0  0
   25.9344  -22.0403    0.0000 C   0  0  0  0  0  0  0  0  0  0  0  0
   23.1537  -12.6559    0.0000 C   0  0  0  0  0  0  0  0  0  0  0  0
   21.8144  -14.4903    0.0000 O   0  0  0  0  0  0  0  0  0  0  0  0
   21.8201  -12.2190    0.0000 O   0  0  0  0  0  0  0  0  0  0  0  0
   20.9933  -13.3547    0.0000 C   0  0  0  0  0  0  0  0  0  0  0  0
   24.5322  -22.0572    0.0000 C   0  0  0  0  0  0  0  0  0  0  0  0
   29.0171  -19.0456    0.0000 O   0  0  0  0  0  0  0  0  0  0  0  0
   24.3678  -16.1571    0.0000 O   0  0  0  0  0  0  0  0  0  0  0  0
   23.1627  -16.8562    0.0000 C   0  0  0  0  0  0  0  0  0  0  0  0
   19.2774  -11.8495    0.0000 C   0  0  0  0  0  0  0  0  0  0  0  0
   17.7264  -11.8554    0.0000 C   0  0  0  0  0  0  0  0  0  0  0  0
   19.9250  -12.9665    0.0000 C   0  0  0  0  0  0  0  0  0  0  0  0
   17.0845  -12.9784    0.0000 C   0  0  0  0  0  0  0  0  0  0  0  0
   19.2832  -14.0898    0.0000 O   0  0  0  0  0  0  0  0  0  0  0  0
   21.2204  -12.9607    0.0000 O   0  0  0  0  0  0  0  0  0  0  0  0
   15.7890  -12.9784    0.0000 O   0  0  0  0  0  0  0  0  0  0  0  0
   17.7381  -14.0956    0.0000 O   0  0  0  0  0  0  0  0  0  0  0  0
    7.0000  -14.8400    0.0000 C   0  0  0  0  0  0  0  0  0  0  0  0
    7.0000  -16.2400    0.0000 C   0  0  0  0  0  0  0  0  0  0  0  0
    8.2124  -16.9400    0.0000 C   0  0  0  0  0  0  0  0  0  0  0  0
    9.4249  -16.2400    0.0000 C   0  0  0  0  0  0  0  0  0  0  0  0
    9.4249  -14.8400    0.0000 C   0  0  0  0  0  0  0  0  0  0  0  0
    8.2124  -14.1400    0.0000 C   0  0  0  0  0  0  0  0  0  0  0  0
   11.8497  -16.2400    0.0000 C   0  0  0  0  0  0  0  0  0  0  0  0
   11.8497  -14.8400    0.0000 C   0  0  0  0  0  0  0  0  0  0  0  0
   10.6373  -14.1400    0.0000 C   0  0  0  0  0  0  0  0  0  0  0  0
   13.0622  -16.9400    0.0000 C   0  0  0  0  0  0  0  0  0  0  0  0
   14.2746  -16.2400    0.0000 C   0  0  0  0  0  0  0  0  0  0  0  0
   14.2746  -14.8400    0.0000 C   0  0  0  0  0  0  0  0  0  0  0  0
   13.0622  -14.1400    0.0000 N   0  0  0  0  0  0  0  0  0  0  0  0
    5.7876  -16.9400    0.0000 Cl  0  0  0  0  0  0  0  0  0  0  0  0
   10.6373  -12.7400    0.0000 C   0  0  0  0  0  0  0  0  0  0  0  0
   11.8518  -12.0388    0.0000 C   0  0  0  0  0  0  0  0  0  0  0  0
   11.8518  -10.6402    0.0000 N   0  0  0  0  0  0  0  0  0  0  0  0
   13.0479   -9.9495    0.0000 C   0  0  0  0  0  0  0  0  0  0  0  0
   10.6230   -9.9306    0.0000 C   0  0  0  0  0  0  0  0  0  0  0  0
  1  2  2  0
  2  3  1  0
  3  4  2  0
  4  5  1  0
  5  6  2  0
  1  6  1  0
  5  7  1  0
  7  8  1  0
  8  9  1  0
  9 10  1  0
  8 11  1  0
  7 12  1  0
  9 13  1  0
 16 19  2  0
 16 20  1  0
 17 21  1  0
 17 22  1  1
 18 23  1  0
 19 24  1  0
 20 25  2  0
 21 26  2  0
 21 27  1  0
 22 28  1  0
 22 29  1  0
 24 30  2  0
 24 31  1  0
 26 32  1  0
 26 33  1  0
 27 34  2  0
 30 35  1  0
 31 36  1  0
 32 37  2  0
 34 38  1  0
 37 39  1  0
 38 40  1  0
 19 23  1  0
 25 30  1  0
 28 33  1  0
 34 37  1  0
 39 40  1  0
 35 41  1  0
 15 16  1  0
 23 42  2  0
 15 17  1  0
 27 43  1  0
 15 18  1  1
 43 44  1  0
 45 46  2  0
 45 47  1  0
 46 48  1  0
 47 49  1  0
 47 50  2  0
 48 51  1  0
 48 52  2  0
 53 54  2  0
 54 55  1  0
 55 56  2  0
 56 57  1  0
 57 58  2  0
 53 58  1  0
 59 60  2  0
 60 61  1  0
 57 61  1  0
 59 62  1  0
 62 63  2  0
 63 64  1  0
 64 65  2  0
 60 65  1  0
 54 66  1  0
 61 67  1  0
 67 68  1  0
 68 69  1  0
 69 70  1  0
 69 71  1  0
M  END
