 
     RDKit          2D

123127  0  0  0  0  0  0  0  0999 V2000
   22.0503  -17.2902    0.0000 N   0  0  0  0  0  0  0  0  0  0  0  0
   21.8400  -16.6484    0.0000 C   0  0  0  0  0  0  0  0  0  0  0  0
   21.8400  -18.0484    0.0000 C   0  0  0  0  0  0  0  0  0  0  0  0
   20.6383  -15.9484    0.0000 C   0  0  0  0  0  0  0  0  0  0  0  0
   23.0476  -15.9484    0.0000 C   0  0  0  0  0  0  0  0  0  0  0  0
   20.6383  -18.7542    0.0000 C   0  0  0  0  0  0  0  0  0  0  0  0
   19.4191  -16.6484    0.0000 C   0  0  0  0  0  0  0  0  0  0  0  0
   24.2608  -16.6367    0.0000 C   0  0  0  0  0  0  0  0  0  0  0  0
   19.4191  -18.0484    0.0000 C   0  0  0  0  0  0  0  0  0  0  0  0
   25.4741  -15.9424    0.0000 C   0  0  0  0  0  0  0  0  0  0  0  0
   18.2058  -18.7542    0.0000 O   0  0  0  0  0  0  0  0  0  0  0  0
   16.9866  -18.0484    0.0000 C   0  0  0  0  0  0  0  0  0  0  0  0
   27.2994  -17.0349    0.0000 C   0  0  0  0  0  0  0  0  0  0  0  0
   27.2994  -18.4349    0.0000 C   0  0  0  0  0  0  0  0  0  0  0  0
   26.0976  -16.3349    0.0000 C   0  0  0  0  0  0  0  0  0  0  0  0
   28.5069  -16.3349    0.0000 C   0  0  0  0  0  0  0  0  0  0  0  0
   26.0976  -19.1407    0.0000 C   0  0  0  0  0  0  0  0  0  0  0  0
   24.8784  -17.0349    0.0000 C   0  0  0  0  0  0  0  0  0  0  0  0
   29.7202  -17.0232    0.0000 C   0  0  0  0  0  0  0  0  0  0  0  0
   24.8784  -18.4349    0.0000 C   0  0  0  0  0  0  0  0  0  0  0  0
   30.9335  -16.3290    0.0000 C   0  0  0  0  0  0  0  0  0  0  0  0
   23.6652  -19.1407    0.0000 O   0  0  0  0  0  0  0  0  0  0  0  0
   22.4460  -18.4349    0.0000 C   0  0  0  0  0  0  0  0  0  0  0  0
   28.4415  -17.1237    0.0000 C   0  0  0  0  0  0  0  0  0  0  0  0
   29.1131  -16.1203    0.0000 C   0  0  0  0  0  0  0  0  0  0  0  0
   27.1905  -17.7883    0.0000 C   0  0  0  0  0  0  0  0  0  0  0  0
   29.9086  -17.3713    0.0000 C   0  0  0  0  0  0  0  0  0  0  0  0
   27.8543  -15.8485    0.0000 C   0  0  0  0  0  0  0  0  0  0  0  0
   29.1131  -18.2451    0.0000 C   0  0  0  0  0  0  0  0  0  0  0  0
   27.8551  -19.1643    0.0000 C   0  0  0  0  0  0  0  0  0  0  0  0
   30.6191  -18.6620    0.0000 C   0  0  0  0  0  0  0  0  0  0  0  0
   26.0999  -17.4331    0.0000 O   0  0  0  0  0  0  0  0  0  0  0  0
   26.6957  -19.5159    0.0000 C   0  0  0  0  0  0  0  0  0  0  0  0
   27.8683  -20.4547    0.0000 C   0  0  0  0  0  0  0  0  0  0  0  0
   32.0998  -18.2186    0.0000 C   0  0  0  0  0  0  0  0  0  0  0  0
   32.0998  -19.6154    0.0000 C   0  0  0  0  0  0  0  0  0  0  0  0
   30.8844  -17.5181    0.0000 C   0  0  0  0  0  0  0  0  0  0  0  0
   33.3093  -17.5181    0.0000 C   0  0  0  0  0  0  0  0  0  0  0  0
   30.8904  -20.3173    0.0000 C   0  0  0  0  0  0  0  0  0  0  0  0
   33.3153  -20.3116    0.0000 C   0  0  0  0  0  0  0  0  0  0  0  0
   30.8844  -16.1157    0.0000 C   0  0  0  0  0  0  0  0  0  0  0  0
   33.3093  -16.1157    0.0000 C   0  0  0  0  0  0  0  0  0  0  0  0
   32.0998  -15.4195    0.0000 C   0  0  0  0  0  0  0  0  0  0  0  0
   32.0998  -14.0170    0.0000 C   0  0  0  0  0  0  0  0  0  0  0  0
   29.3619  -16.7898    0.0000 C   0  0  0  0  0  0  0  0  0  0  0  0
   29.3619  -18.1897    0.0000 C   0  0  0  0  0  0  0  0  0  0  0  0
   28.1410  -17.4904    0.0000 C   0  0  0  0  0  0  0  0  0  0  0  0
   28.1527  -16.0905    0.0000 C   0  0  0  0  0  0  0  0  0  0  0  0
   28.1527  -18.8903    0.0000 C   0  0  0  0  0  0  0  0  0  0  0  0
   30.7560  -18.1897    0.0000 C   0  0  0  0  0  0  0  0  0  0  0  0
   30.3407  -19.1803    0.0000 C   0  0  0  0  0  0  0  0  0  0  0  0
   28.1410  -14.6964    0.0000 C   0  0  0  0  0  0  0  0  0  0  0  0
   26.9480  -18.1897    0.0000 C   0  0  0  0  0  0  0  0  0  0  0  0
   26.9170  -16.7827    0.0000 C   0  0  0  0  0  0  0  0  0  0  0  0
   25.1662  -14.9879    0.0000 C   0  0  0  0  0  0  0  0  0  0  0  0
   25.1662  -16.3879    0.0000 C   0  0  0  0  0  0  0  0  0  0  0  0
   23.9451  -15.6885    0.0000 C   0  0  0  0  0  0  0  0  0  0  0  0
   23.9568  -14.2886    0.0000 C   0  0  0  0  0  0  0  0  0  0  0  0
   23.9568  -17.0885    0.0000 C   0  0  0  0  0  0  0  0  0  0  0  0
   26.5601  -15.7579    0.0000 C   0  0  0  0  0  0  0  0  0  0  0  0
   26.4949  -17.4484    0.0000 C   0  0  0  0  0  0  0  0  0  0  0  0
   23.9451  -12.8947    0.0000 C   0  0  0  0  0  0  0  0  0  0  0  0
   22.7522  -16.3879    0.0000 C   0  0  0  0  0  0  0  0  0  0  0  0
   22.7212  -14.9809    0.0000 C   0  0  0  0  0  0  0  0  0  0  0  0
   27.8318  -22.5358    0.0000 C   0  0  0  0  0  0  0  0  0  0  0  0
   26.6147  -21.9334    0.0000 C   0  0  0  0  0  0  0  0  0  0  0  0
   27.4603  -21.1711    0.0000 C   0  0  0  0  0  0  0  0  0  0  0  0
   29.0686  -21.9334    0.0000 C   0  0  0  0  0  0  0  0  0  0  0  0
   26.6147  -20.5176    0.0000 C   0  0  0  0  0  0  0  0  0  0  0  0
   25.6280  -22.9836    0.0000 C   0  0  0  0  0  0  0  0  0  0  0  0
   25.2692  -21.9360    0.0000 C   0  0  0  0  0  0  0  0  0  0  0  0
   27.8447  -19.8129    0.0000 C   0  0  0  0  0  0  0  0  0  0  0  0
   29.0686  -20.5176    0.0000 C   0  0  0  0  0  0  0  0  0  0  0  0
   25.4103  -19.8192    0.0000 C   0  0  0  0  0  0  0  0  0  0  0  0
   24.6400  -16.1740    0.0000 C   0  0  0  0  0  0  0  0  0  0  0  0
   24.6400  -17.5706    0.0000 C   0  0  0  0  0  0  0  0  0  0  0  0
   25.8503  -15.4700    0.0000 C   0  0  0  0  0  0  0  0  0  0  0  0
   23.4238  -15.4700    0.0000 C   0  0  0  0  0  0  0  0  0  0  0  0
   23.4297  -18.2689    0.0000 C   0  0  0  0  0  0  0  0  0  0  0  0
   25.8562  -18.2632    0.0000 C   0  0  0  0  0  0  0  0  0  0  0  0
   25.8503  -14.0677    0.0000 C   0  0  0  0  0  0  0  0  0  0  0  0
   23.4238  -14.0677    0.0000 C   0  0  0  0  0  0  0  0  0  0  0  0
   24.6400  -13.3751    0.0000 C   0  0  0  0  0  0  0  0  0  0  0  0
   24.6400  -11.9727    0.0000 C   0  0  0  0  0  0  0  0  0  0  0  0
   28.8400  -17.9940    0.0000 C   0  0  0  0  0  0  0  0  0  0  0  0
   28.8400  -19.3906    0.0000 C   0  0  0  0  0  0  0  0  0  0  0  0
   27.6238  -17.2900    0.0000 C   0  0  0  0  0  0  0  0  0  0  0  0
   30.0503  -17.2900    0.0000 C   0  0  0  0  0  0  0  0  0  0  0  0
   27.6297  -20.0889    0.0000 C   0  0  0  0  0  0  0  0  0  0  0  0
   30.0562  -20.0832    0.0000 C   0  0  0  0  0  0  0  0  0  0  0  0
   27.6238  -15.8877    0.0000 C   0  0  0  0  0  0  0  0  0  0  0  0
   30.0503  -15.8877    0.0000 C   0  0  0  0  0  0  0  0  0  0  0  0
   28.8400  -15.1951    0.0000 C   0  0  0  0  0  0  0  0  0  0  0  0
   28.8400  -13.7927    0.0000 C   0  0  0  0  0  0  0  0  0  0  0  0
   18.8294  -16.0513    0.0000 C   0  0  0  0  0  0  0  0  0  0  0  0
   19.4454  -14.9360    0.0000 C   0  0  0  0  0  0  0  0  0  0  0  0
   17.6678  -16.6673    0.0000 C   0  0  0  0  0  0  0  0  0  0  0  0
   20.1790  -16.2864    0.0000 C   0  0  0  0  0  0  0  0  0  0  0  0
   19.4454  -17.0903    0.0000 C   0  0  0  0  0  0  0  0  0  0  0  0
   18.2837  -17.9413    0.0000 C   0  0  0  0  0  0  0  0  0  0  0  0
   20.8359  -17.4775    0.0000 C   0  0  0  0  0  0  0  0  0  0  0  0
   20.3346  -14.0468    0.0000 C   0  0  0  0  0  0  0  0  0  0  0  0
   18.5562  -14.0468    0.0000 C   0  0  0  0  0  0  0  0  0  0  0  0
   16.4847  -16.2800    0.0000 O   0  0  0  0  0  0  0  0  0  0  0  0
   17.8395  -15.0613    0.0000 C   0  0  0  0  0  0  0  0  0  0  0  0
   28.0222  -20.9516    0.0000 C   0  0  0  0  0  0  0  0  0  0  0  0
   29.2495  -20.2732    0.0000 C   0  0  0  0  0  0  0  0  0  0  0  0
   29.2768  -18.8712    0.0000 C   0  0  0  0  0  0  0  0  0  0  0  0
   28.0803  -18.1538    0.0000 C   0  0  0  0  0  0  0  0  0  0  0  0
   26.7830  -18.8251    0.0000 C   0  0  0  0  0  0  0  0  0  0  0  0
   26.8223  -20.2208    0.0000 C   0  0  0  0  0  0  0  0  0  0  0  0
   28.0380  -16.7543    0.0000 C   0  0  0  0  0  0  0  0  0  0  0  0
   26.9089  -16.0271    0.0000 O   0  0  0  0  0  0  0  0  0  0  0  0
   27.9927  -22.3509    0.0000 O   0  0  0  0  0  0  0  0  0  0  0  0
   29.1909  -23.0727    0.0000 C   0  0  0  0  0  0  0  0  0  0  0  0
   21.1966  -17.0266    0.0000 C   0  0  0  0  0  0  0  0  0  0  0  0
   19.9953  -17.7167    0.0000 C   0  0  0  0  0  0  0  0  0  0  0  0
   22.4173  -17.7167    0.0000 C   0  0  0  0  0  0  0  0  0  0  0  0
   21.1903  -15.6334    0.0000 C   0  0  0  0  0  0  0  0  0  0  0  0
   19.9953  -19.1226    0.0000 C   0  0  0  0  0  0  0  0  0  0  0  0
   22.4173  -19.1226    0.0000 C   0  0  0  0  0  0  0  0  0  0  0  0
   22.3980  -14.9369    0.0000 O   0  0  0  0  0  0  0  0  0  0  0  0
   21.1966  -19.8383    0.0000 C   0  0  0  0  0  0  0  0  0  0  0  0
  2  3  2  0
  2  4  1  0
  2  5  1  0
  3  6  1  0
  4  7  2  0
  5  8  2  0
  6  9  2  0
  8 10  1  0
  9 11  1  0
 11 12  1  0
  7  9  1  0
 13 14  2  0
 13 15  1  0
 13 16  1  0
 14 17  1  0
 15 18  2  0
 16 19  1  0
 17 20  2  0
 19 21  2  0
 20 22  1  0
 22 23  1  0
 18 20  1  0
 24 27  1  0
 24 28  1  0
 25 29  1  0
 26 30  1  0
 27 31  1  0
 29 30  1  0
 29 31  1  0
 26 32  2  0
 24 25  1  0
 30 33  1  0
 24 26  1  0
 30 34  1  0
 35 36  1  0
 35 37  1  0
 35 38  1  0
 36 39  2  0
 36 40  1  0
 37 41  1  0
 38 42  1  0
 41 43  1  0
 43 44  1  0
 42 43  2  0
 45 46  1  0
 45 47  1  0
 45 48  1  0
 46 49  1  0
 46 50  1  0
 46 51  1  0
 48 54  2  0
 48 52  1  0
 49 53  1  0
 49 47  1  0
 54 53  1  0
 55 56  1  0
 55 57  1  0
 55 58  1  0
 56 59  1  0
 56 60  1  0
 56 61  1  0
 58 64  1  0
 58 62  2  0
 59 63  1  0
 59 57  1  0
 64 63  1  0
 65 66  1  0
 65 67  1  0
 65 68  1  0
 66 69  1  0
 66 70  1  0
 66 71  1  0
 72 67  1  0
 68 73  1  0
 69 74  2  0
 69 72  1  0
 72 73  1  0
 75 76  1  0
 75 77  1  0
 75 78  2  0
 76 79  1  0
 76 80  1  0
 77 81  1  0
 78 82  1  0
 81 83  2  0
 83 84  1  0
 82 83  1  0
 85 86  1  0
 85 87  2  0
 85 88  1  0
 86 89  1  0
 86 90  1  0
 87 91  1  0
 88 92  2  0
 91 93  2  0
 93 94  1  0
 92 93  1  0
 95 97  1  0
 95 98  1  0
 97100  1  0
 98101  1  0
 99100  1  6
 99101  1  0
 96102  1  0
 96103  1  0
 97104  2  0
 99 96  1  0
 95 96  1  0
 95105  1  6
109110  2  0
110111  1  0
111106  2  0
109112  1  0
106107  1  0
112113  2  0
107108  2  0
106114  1  0
108109  1  0
114115  1  0
116117  2  0
116118  1  0
116119  1  0
117120  1  0
118121  2  0
119122  1  0
120123  2  0
121123  1  0
M  END
