 
     RDKit          2D

 97110  0  0  1  0  0  0  0  0999 V2000
   23.0350  -18.9936    0.0000 C   0  0  0  0  0  0  0  0  0  0  0  0
   24.2088  -19.6769    0.0000 C   0  0  0  0  0  0  0  0  0  0  0  0
   21.8554  -19.6827    0.0000 C   0  0  0  0  0  0  0  0  0  0  0  0
   23.0233  -17.6271    0.0000 C   0  0  0  0  0  0  0  0  0  0  0  0
   25.4002  -18.9819    0.0000 C   0  0  0  0  0  0  0  0  0  0  0  0
   24.1913  -21.0784    0.0000 C   0  0  0  0  0  0  0  0  0  0  0  0
   21.8554  -21.0375    0.0000 C   0  0  0  0  0  0  0  0  0  0  0  0
   20.6873  -19.0112    0.0000 C   0  0  0  0  0  0  0  0  0  0  0  0
   21.8437  -18.2754    0.0000 C   0  0  0  0  0  0  0  0  0  0  0  0
   24.2030  -16.9322    0.0000 C   0  0  0  0  0  0  0  0  0  0  0  0
   25.4060  -17.6097    0.0000 C   0  0  0  0  0  0  0  0  0  0  0  0
   27.7653  -18.9936    0.0000 C   0  0  0  0  0  0  0  0  0  0  0  0
   23.0409  -21.7092    0.0000 C   0  0  0  0  0  0  0  0  0  0  0  0
   20.6873  -21.7150    0.0000 C   0  0  0  0  0  0  0  0  0  0  0  0
   19.5194  -19.6827    0.0000 C   0  0  0  0  0  0  0  0  0  0  0  0
   26.5974  -16.9263    0.0000 C   0  0  0  0  0  0  0  0  0  0  0  0
   25.3943  -16.2081    0.0000 C   0  0  0  0  0  0  0  0  0  0  0  0
   27.7712  -17.6213    0.0000 C   0  0  0  0  0  0  0  0  0  0  0  0
   19.5194  -21.0375    0.0000 C   0  0  0  0  0  0  0  0  0  0  0  0
   26.6032  -15.5948    0.0000 C   0  0  0  0  0  0  0  0  0  0  0  0
   18.3690  -21.6975    0.0000 O   0  0  0  0  0  0  0  0  0  0  0  0
   25.3885  -14.8823    0.0000 C   0  0  0  0  0  0  0  0  0  0  0  0
   27.8121  -14.8882    0.0000 O   0  0  0  0  0  0  0  0  0  0  0  0
   24.1622  -14.9985    0.0000 C   0  0  0  0  0  0  0  0  0  0  0  0
   24.1622  -16.3696    0.0000 C   0  0  0  0  0  0  0  0  0  0  0  0
   25.3496  -17.0552    0.0000 C   0  0  0  0  0  0  0  0  0  0  0  0
   26.5371  -16.3696    0.0000 C   0  0  0  0  0  0  0  0  0  0  0  0
   26.5371  -14.9985    0.0000 C   0  0  0  0  0  0  0  0  0  0  0  0
   25.3496  -14.3129    0.0000 C   0  0  0  0  0  0  0  0  0  0  0  0
   22.9748  -17.0552    0.0000 C   0  0  0  0  0  0  0  0  0  0  0  0
   22.9748  -18.4263    0.0000 C   0  0  0  0  0  0  0  0  0  0  0  0
   24.1622  -19.1118    0.0000 C   0  0  0  0  0  0  0  0  0  0  0  0
   25.3496  -18.4263    0.0000 C   0  0  0  0  0  0  0  0  0  0  0  0
   21.7873  -16.3696    0.0000 C   0  0  0  0  0  0  0  0  0  0  0  0
   20.5999  -17.0552    0.0000 C   0  0  0  0  0  0  0  0  0  0  0  0
   20.5999  -18.4263    0.0000 C   0  0  0  0  0  0  0  0  0  0  0  0
   21.7873  -19.1118    0.0000 C   0  0  0  0  0  0  0  0  0  0  0  0
   28.9119  -16.3696    0.0000 C   0  0  0  0  0  0  0  0  0  0  0  0
   28.9119  -14.9985    0.0000 C   0  0  0  0  0  0  0  0  0  0  0  0
   27.7245  -14.3129    0.0000 C   0  0  0  0  0  0  0  0  0  0  0  0
   19.4099  -19.1118    0.0000 O   0  0  0  0  0  0  0  0  0  0  0  0
   18.2224  -18.4263    0.0000 C   0  0  0  0  0  0  0  0  0  0  0  0
   17.0350  -19.1118    0.0000 C   0  0  0  0  0  0  0  0  0  0  0  0
   18.2224  -17.0552    0.0000 O   0  0  0  0  0  0  0  0  0  0  0  0
   15.8455  -18.4252    0.0000 C   0  0  0  0  0  0  0  0  0  0  0  0
   14.6581  -19.1108    0.0000 C   0  0  0  0  0  0  0  0  0  0  0  0
   14.6581  -20.4819    0.0000 C   0  0  0  0  0  0  0  0  0  0  0  0
   15.8476  -21.1685    0.0000 C   0  0  0  0  0  0  0  0  0  0  0  0
   17.0350  -20.4830    0.0000 C   0  0  0  0  0  0  0  0  0  0  0  0
   27.7272  -12.9418    0.0000 O   0  0  0  0  0  0  0  0  0  0  0  0
   26.5389  -13.6273    0.0000 C   0  0  0  0  0  0  0  0  0  0  0  0
   19.0779  -11.8363    0.0000 C   0  0  0  0  0  0  0  0  0  0  0  0
   19.0779  -13.2006    0.0000 C   0  0  0  0  0  0  0  0  0  0  0  0
   20.2594  -13.8828    0.0000 C   0  0  0  0  0  0  0  0  0  0  0  0
   21.4411  -13.2006    0.0000 C   0  0  0  0  0  0  0  0  0  0  0  0
   21.4411  -11.8363    0.0000 C   0  0  0  0  0  0  0  0  0  0  0  0
   20.2594  -11.1541    0.0000 C   0  0  0  0  0  0  0  0  0  0  0  0
   22.6226  -13.8828    0.0000 C   0  0  0  0  0  0  0  0  0  0  0  0
   23.8041  -13.2006    0.0000 C   0  0  0  0  0  0  0  0  0  0  0  0
   23.8041  -11.8363    0.0000 C   0  0  0  0  0  0  0  0  0  0  0  0
   22.6226  -11.1541    0.0000 C   0  0  0  0  0  0  0  0  0  0  0  0
   24.9857  -11.1541    0.0000 C   0  0  0  0  0  0  0  0  0  0  0  0
   24.9857   -9.7898    0.0000 C   0  0  0  0  0  0  0  0  0  0  0  0
   23.8041   -9.1076    0.0000 C   0  0  0  0  0  0  0  0  0  0  0  0
   22.6226   -9.7898    0.0000 C   0  0  0  0  0  0  0  0  0  0  0  0
   27.3487  -11.1541    0.0000 C   0  0  0  0  0  0  0  0  0  0  0  0
   27.3487   -9.7898    0.0000 C   0  0  0  0  0  0  0  0  0  0  0  0
   26.1672   -9.1076    0.0000 C   0  0  0  0  0  0  0  0  0  0  0  0
   26.1672   -7.7433    0.0000 O   0  0  0  0  0  0  0  0  0  0  0  0
   17.8964  -13.8828    0.0000 O   0  0  0  0  0  0  0  0  0  0  0  0
   24.9857   -8.4255    0.0000 C   0  0  0  0  0  0  0  0  0  0  0  0
   21.7770  -18.3828    0.0000 C   0  0  0  0  0  0  0  0  0  0  0  0
   20.5804  -19.0567    0.0000 C   0  0  0  0  0  0  0  0  0  0  0  0
   21.7886  -17.0060    0.0000 C   0  0  0  0  0  0  0  0  0  0  0  0
   24.1646  -18.4002    0.0000 C   0  0  0  0  0  0  0  0  0  0  0  0
   19.3954  -18.3596    0.0000 C   0  0  0  0  0  0  0  0  0  0  0  0
   20.5804  -20.4276    0.0000 C   0  0  0  0  0  0  0  0  0  0  0  0
   22.9854  -16.3321    0.0000 C   0  0  0  0  0  0  0  0  0  0  0  0
   20.6036  -16.3148    0.0000 C   0  0  0  0  0  0  0  0  0  0  0  0
   21.7364  -15.7861    0.0000 C   0  0  0  0  0  0  0  0  0  0  0  0
   24.1762  -17.0292    0.0000 C   0  0  0  0  0  0  0  0  0  0  0  0
   18.1987  -19.0392    0.0000 C   0  0  0  0  0  0  0  0  0  0  0  0
   19.4069  -16.9827    0.0000 C   0  0  0  0  0  0  0  0  0  0  0  0
   19.3895  -21.1131    0.0000 C   0  0  0  0  0  0  0  0  0  0  0  0
   22.9738  -14.9555    0.0000 O   0  0  0  0  0  0  0  0  0  0  0  0
   18.1929  -20.4160    0.0000 C   0  0  0  0  0  0  0  0  0  0  0  0
   17.0194  -18.3537    0.0000 C   0  0  0  0  0  0  0  0  0  0  0  0
   17.0194  -21.1072    0.0000 C   0  0  0  0  0  0  0  0  0  0  0  0
   15.8286  -19.0392    0.0000 C   0  0  0  0  0  0  0  0  0  0  0  0
   15.8286  -20.4160    0.0000 C   0  0  0  0  0  0  0  0  0  0  0  0
   14.6261  -21.1072    0.0000 O   0  0  0  0  0  0  0  0  0  0  0  0
   24.1719  -14.2605    0.0000 C   0  0  0  0  0  0  0  0  0  0  0  0
   25.3722  -14.9485    0.0000 C   0  0  0  0  0  0  0  0  0  0  0  0
   26.5725  -14.2536    0.0000 C   0  0  0  0  0  0  0  0  0  0  0  0
   27.7727  -14.9415    0.0000 C   0  0  0  0  0  0  0  0  0  0  0  0
   24.1648  -12.8707    0.0000 O   0  0  0  0  0  0  0  0  0  0  0  0
   28.9742  -14.2427    0.0000 C   0  0  0  0  0  0  0  0  0  0  0  0
  1  2  1  0
  1  3  1  0
  1  4  1  1
  2  5  1  0
  2  6  1  6
  3  7  1  0
  3  8  1  0
  3  9  1  1
  4 10  1  0
  5 11  1  0
  5 12  1  1
  6 13  1  0
  7 14  2  0
  8 15  1  0
 11 16  1  0
 11 17  1  1
 12 18  1  0
 14 19  1  0
 16 20  1  1
 19 21  2  0
 20 22  1  0
 20 23  2  0
  7 13  1  0
 10 11  1  0
 15 19  1  0
 16 18  1  0
 25 24  1  1
 25 26  1  0
 26 27  1  0
 27 28  1  0
 28 29  1  0
 24 29  1  0
 25 30  1  0
 30 31  2  0
 31 32  1  0
 32 33  1  0
 26 33  1  6
 30 34  1  0
 34 35  2  0
 35 36  1  0
 36 37  2  0
 31 37  1  0
 27 38  1  1
 38 39  1  0
 39 40  1  0
 28 40  1  0
 36 41  1  0
 41 42  1  0
 42 43  1  0
 42 44  2  0
 43 45  2  0
 45 46  1  0
 46 47  2  0
 47 48  1  0
 48 49  2  0
 43 49  1  0
 40 50  1  1
 28 51  1  1
 52 53  2  0
 53 54  1  0
 54 55  2  0
 55 56  1  0
 56 57  2  0
 52 57  1  0
 55 58  1  0
 58 59  1  0
 60 59  1  6
 60 61  1  0
 56 61  1  0
 60 62  1  0
 62 63  1  0
 63 64  1  0
 64 65  1  0
 61 65  1  1
 62 66  1  1
 66 67  1  0
 67 68  1  0
 63 68  1  0
 68 69  1  1
 53 70  1  0
 63 71  1  1
 78 81  1  0
 79 83  1  0
 84 86  1  0
 89 90  1  0
 72 73  1  0
 72 74  1  0
 72 75  1  1
 73 76  1  0
 73 77  1  6
 74 78  1  0
 74 79  1  0
 74 80  1  1
 75 81  1  0
 76 82  1  0
 76 83  1  1
 77 84  1  0
 78 85  1  1
 82 86  2  0
 85 92  1  0
 82 87  1  0
 92 93  1  0
 86 88  1  0
 93 94  1  0
 87 89  2  0
 94 95  1  0
 88 90  2  0
 92 96  2  0
 90 91  1  0
 95 97  1  0
M  END
