 
     RDKit          2D

 45 51  0  0  1  0  0  0  0  0999 V2000
   26.8454  -15.9774    0.0000 C   0  0  0  0  0  0  0  0  0  0  0  0
   26.8978  -17.3426    0.0000 C   0  0  0  0  0  0  0  0  0  0  0  0
   28.0297  -15.3006    0.0000 C   0  0  0  0  0  0  0  0  0  0  0  0
   25.6667  -15.2830    0.0000 C   0  0  0  0  0  0  0  0  0  0  0  0
   26.8337  -14.6121    0.0000 C   0  0  0  0  0  0  0  0  0  0  0  0
   25.6434  -18.0194    0.0000 C   0  0  0  0  0  0  0  0  0  0  0  0
   29.1908  -17.3658    0.0000 C   0  0  0  0  0  0  0  0  0  0  0  0
   29.2082  -16.0006    0.0000 C   0  0  0  0  0  0  0  0  0  0  0  0
   29.2082  -14.6179    0.0000 C   0  0  0  0  0  0  0  0  0  0  0  0
   28.0472  -13.7311    0.0000 O   0  0  0  0  0  0  0  0  0  0  0  0
   24.4066  -15.9598    0.0000 C   0  0  0  0  0  0  0  0  0  0  0  0
   25.6434  -13.9237    0.0000 C   0  0  0  0  0  0  0  0  0  0  0  0
   24.4649  -17.3250    0.0000 C   0  0  0  0  0  0  0  0  0  0  0  0
   25.6434  -19.3845    0.0000 C   0  0  0  0  0  0  0  0  0  0  0  0
   30.3809  -13.9237    0.0000 C   0  0  0  0  0  0  0  0  0  0  0  0
   23.2746  -18.0078    0.0000 C   0  0  0  0  0  0  0  0  0  0  0  0
   24.4532  -20.0615    0.0000 C   0  0  0  0  0  0  0  0  0  0  0  0
   23.2688  -19.3730    0.0000 C   0  0  0  0  0  0  0  0  0  0  0  0
   22.1019  -17.3193    0.0000 C   0  0  0  0  0  0  0  0  0  0  0  0
   22.1019  -20.0556    0.0000 C   0  0  0  0  0  0  0  0  0  0  0  0
   20.9058  -18.0078    0.0000 C   0  0  0  0  0  0  0  0  0  0  0  0
   20.9058  -19.3730    0.0000 C   0  0  0  0  0  0  0  0  0  0  0  0
   19.7157  -20.0498    0.0000 O   0  0  0  0  0  0  0  0  0  0  0  0
   20.4641  -16.5790    0.0000 C   0  0  0  0  0  0  0  0  0  0  0  0
   20.4525  -15.2599    0.0000 C   0  0  0  0  0  0  0  0  0  0  0  0
   19.3184  -17.2675    0.0000 C   0  0  0  0  0  0  0  0  0  0  0  0
   22.7610  -16.5558    0.0000 C   0  0  0  0  0  0  0  0  0  0  0  0
   21.5923  -14.5829    0.0000 C   0  0  0  0  0  0  0  0  0  0  0  0
   19.2897  -14.6060    0.0000 C   0  0  0  0  0  0  0  0  0  0  0  0
   20.4069  -13.9233    0.0000 C   0  0  0  0  0  0  0  0  0  0  0  0
   18.1671  -16.6137    0.0000 C   0  0  0  0  0  0  0  0  0  0  0  0
   19.3474  -18.5982    0.0000 C   0  0  0  0  0  0  0  0  0  0  0  0
   22.7435  -15.2310    0.0000 C   0  0  0  0  0  0  0  0  0  0  0  0
   22.6337  -13.9233    0.0000 C   0  0  0  0  0  0  0  0  0  0  0  0
   18.2198  -15.2887    0.0000 C   0  0  0  0  0  0  0  0  0  0  0  0
   17.0216  -17.3022    0.0000 C   0  0  0  0  0  0  0  0  0  0  0  0
   18.2020  -19.2926    0.0000 C   0  0  0  0  0  0  0  0  0  0  0  0
   23.6808  -13.2580    0.0000 C   0  0  0  0  0  0  0  0  0  0  0  0
   17.0390  -18.6328    0.0000 C   0  0  0  0  0  0  0  0  0  0  0  0
   15.8414  -16.6542    0.0000 C   0  0  0  0  0  0  0  0  0  0  0  0
   15.8992  -19.3387    0.0000 C   0  0  0  0  0  0  0  0  0  0  0  0
   14.6901  -17.3484    0.0000 C   0  0  0  0  0  0  0  0  0  0  0  0
   14.7190  -18.6967    0.0000 C   0  0  0  0  0  0  0  0  0  0  0  0
   13.5735  -19.3908    0.0000 O   0  0  0  0  0  0  0  0  0  0  0  0
   21.5923  -12.9182    0.0000 O   0  0  0  0  0  0  0  0  0  0  0  0
  1  2  1  0
  1  3  1  0
  1  4  1  0
  1  5  1  1
  2  6  1  0
  2  7  1  1
  3  8  1  0
  3  9  1  0
  3 10  1  1
  4 11  1  0
  5 12  1  0
  6 13  1  0
  6 14  1  6
  9 15  3  0
 13 16  1  0
 14 17  1  0
 16 18  1  0
 16 19  1  6
 18 20  2  0
 19 21  1  0
 20 22  1  0
 22 23  2  0
  7  8  1  0
 13 11  1  1
 17 18  1  0
 21 22  1  0
 24 25  1  0
 24 26  1  0
 24 27  1  1
 25 28  1  0
 25 29  1  0
 25 30  1  1
 26 31  1  0
 26 32  1  6
 27 33  1  0
 28 34  1  0
 29 35  1  0
 31 36  1  0
 32 37  1  0
 34 38  3  0
 36 39  2  0
 36 40  1  0
 39 41  1  0
 40 42  2  0
 41 43  2  0
 43 44  1  0
 28 33  1  0
 31 35  1  1
 37 39  1  0
 42 43  1  0
 28 45  1  1
M  END
