 
     RDKit          2D

 59 65  0  0  1  0  0  0  0  0999 V2000
   16.3800  -29.1900    0.0000 C   0  0  0  0  0  0  0  0  0  0  0  0
   16.3800  -30.5900    0.0000 C   0  0  0  0  0  0  0  0  0  0  0  0
   17.5700  -31.2200    0.0000 C   0  0  0  0  0  0  0  0  0  0  0  0
   18.7600  -30.5900    0.0000 C   0  0  0  0  0  0  0  0  0  0  0  0
   18.7600  -29.1900    0.0000 C   0  0  0  0  0  0  0  0  0  0  0  0
   17.5700  -28.4900    0.0000 C   0  0  0  0  0  0  0  0  0  0  0  0
   19.9500  -31.2200    0.0000 C   0  0  0  0  0  0  0  0  0  0  0  0
   21.2100  -30.5900    0.0000 C   0  0  0  0  0  0  0  0  0  0  0  0
   21.2100  -29.1900    0.0000 C   0  0  0  0  0  0  0  0  0  0  0  0
   19.9500  -28.4900    0.0000 C   0  0  0  0  0  0  0  0  0  0  0  0
   22.4000  -28.4900    0.0000 C   0  0  0  0  0  0  0  0  0  0  0  0
   22.4000  -27.0900    0.0000 C   0  0  0  0  0  0  0  0  0  0  0  0
   21.2100  -26.3900    0.0000 C   0  0  0  0  0  0  0  0  0  0  0  0
   19.9500  -27.0900    0.0000 C   0  0  0  0  0  0  0  0  0  0  0  0
   15.1900  -31.2200    0.0000 O   0  0  0  0  0  0  0  0  0  0  0  0
   18.7600  -27.7900    0.0000 C   0  0  0  0  0  0  0  0  0  0  0  0
   22.4000  -25.6900    0.0000 C   0  0  0  0  0  0  0  0  0  0  0  0
   24.8500  -28.4900    0.0000 C   0  0  0  0  0  0  0  0  0  0  0  0
   24.8500  -27.0900    0.0000 C   0  0  0  0  0  0  0  0  0  0  0  0
   23.5900  -26.3900    0.0000 C   0  0  0  0  0  0  0  0  0  0  0  0
   23.5900  -24.9900    0.0000 C   0  0  0  0  0  0  0  0  0  0  0  0
   22.4000  -24.2900    0.0000 O   0  0  0  0  0  0  0  0  0  0  0  0
   24.7800  -24.2900    0.0000 C   0  0  0  0  0  0  0  0  0  0  0  0
   24.7800  -25.6900    0.0000 O   0  0  0  0  0  0  0  0  0  0  0  0
   25.9700  -26.3900    0.0000 C   0  0  0  0  0  0  0  0  0  0  0  0
   27.1600  -25.6900    0.0000 C   0  0  0  0  0  0  0  0  0  0  0  0
   25.9700  -27.7900    0.0000 O   0  0  0  0  0  0  0  0  0  0  0  0
   28.3500  -26.3900    0.0000 C   0  0  0  0  0  0  0  0  0  0  0  0
   29.5400  -25.6900    0.0000 C   0  0  0  0  0  0  0  0  0  0  0  0
   30.7300  -26.3900    0.0000 C   0  0  0  0  0  0  0  0  0  0  0  0
   31.9200  -25.6900    0.0000 C   0  0  0  0  0  0  0  0  0  0  0  0
   20.6500  -29.7500    0.0000 C   0  0  0  0  0  0  0  0  0  0  0  0
   20.6500  -31.1500    0.0000 C   0  0  0  0  0  0  0  0  0  0  0  0
   21.8400  -31.8500    0.0000 C   0  0  0  0  0  0  0  0  0  0  0  0
   23.0300  -31.1500    0.0000 C   0  0  0  0  0  0  0  0  0  0  0  0
   23.0300  -29.7500    0.0000 C   0  0  0  0  0  0  0  0  0  0  0  0
   21.8400  -28.9800    0.0000 C   0  0  0  0  0  0  0  0  0  0  0  0
   24.2900  -31.8500    0.0000 C   0  0  0  0  0  0  0  0  0  0  0  0
   25.4800  -31.1500    0.0000 C   0  0  0  0  0  0  0  0  0  0  0  0
   25.4800  -29.7500    0.0000 C   0  0  0  0  0  0  0  0  0  0  0  0
   24.2900  -28.9800    0.0000 C   0  0  0  0  0  0  0  0  0  0  0  0
   26.6700  -28.9800    0.0000 C   0  0  0  0  0  0  0  0  0  0  0  0
   26.6700  -27.5800    0.0000 C   0  0  0  0  0  0  0  0  0  0  0  0
   25.4800  -26.8800    0.0000 C   0  0  0  0  0  0  0  0  0  0  0  0
   24.2900  -27.5800    0.0000 C   0  0  0  0  0  0  0  0  0  0  0  0
   19.3900  -31.8500    0.0000 O   0  0  0  0  0  0  0  0  0  0  0  0
   26.6700  -26.1800    0.0000 C   0  0  0  0  0  0  0  0  0  0  0  0
   18.2000  -31.1500    0.0000 C   0  0  0  0  0  0  0  0  0  0  0  0
   17.0100  -31.7800    0.0000 C   0  0  0  0  0  0  0  0  0  0  0  0
   18.2000  -29.6800    0.0000 O   0  0  0  0  0  0  0  0  0  0  0  0
   15.8200  -31.1500    0.0000 C   0  0  0  0  0  0  0  0  0  0  0  0
   29.0949  -28.9800    0.0000 C   0  0  0  0  0  0  0  0  0  0  0  0
   29.0949  -27.5800    0.0000 C   0  0  0  0  0  0  0  0  0  0  0  0
   27.8824  -26.8800    0.0000 C   0  0  0  0  0  0  0  0  0  0  0  0
   27.8824  -25.4802    0.0000 O   0  0  0  0  0  0  0  0  0  0  0  0
   29.0780  -24.7898    0.0000 C   0  0  0  0  0  0  0  0  0  0  0  0
   30.2652  -25.4752    0.0000 C   0  0  0  0  0  0  0  0  0  0  0  0
   31.4566  -24.7872    0.0000 C   0  0  0  0  0  0  0  0  0  0  0  0
   29.0782  -23.3803    0.0000 O   0  0  0  0  0  0  0  0  0  0  0  0
  1  2  1  0
  2  3  1  0
  3  4  2  0
  4  5  1  0
  5  6  1  0
  1  6  1  0
  4  7  1  0
  7  8  1  0
  9  8  1  6
  9 10  1  0
  5 10  1  0
  9 11  1  0
 11 12  1  0
 12 13  1  0
 13 14  1  0
 10 14  1  1
  2 15  2  0
  5 16  1  1
 12 17  1  1
 11 18  1  1
 18 19  1  0
 19 20  1  0
 12 20  1  0
 20 21  1  0
 21 22  2  0
 21 23  1  0
 20 24  1  6
 24 25  1  0
 25 26  1  0
 25 27  2  0
 26 28  1  0
 28 29  1  0
 29 30  1  0
 30 31  1  0
 32 33  2  0
 33 34  1  0
 34 35  2  0
 35 36  1  0
 36 37  2  0
 32 37  1  0
 35 38  1  0
 38 39  1  0
 40 39  1  6
 40 41  1  0
 36 41  1  0
 40 42  1  0
 42 43  1  0
 43 44  1  0
 44 45  1  0
 41 45  1  1
 33 46  1  0
 43 47  1  1
 46 48  1  0
 48 49  1  0
 48 50  2  0
 49 51  1  0
 42 52  1  1
 52 53  1  0
 53 54  1  0
 43 54  1  0
 54 55  1  1
 55 56  1  0
 56 57  1  0
 57 58  1  0
 56 59  2  0
M  END
