 
     RDKit          2D

 45 51  0  0  1  0  0  0  0  0999 V2000
   20.4641  -16.5790    0.0000 C   0  0  0  0  0  0  0  0  0  0  0  0
   20.4525  -15.2599    0.0000 C   0  0  0  0  0  0  0  0  0  0  0  0
   19.3184  -17.2675    0.0000 C   0  0  0  0  0  0  0  0  0  0  0  0
   22.7610  -16.5558    0.0000 C   0  0  0  0  0  0  0  0  0  0  0  0
   21.5923  -14.5829    0.0000 C   0  0  0  0  0  0  0  0  0  0  0  0
   19.2897  -14.6060    0.0000 C   0  0  0  0  0  0  0  0  0  0  0  0
   20.4069  -13.9233    0.0000 C   0  0  0  0  0  0  0  0  0  0  0  0
   18.1671  -16.6137    0.0000 C   0  0  0  0  0  0  0  0  0  0  0  0
   19.3474  -18.5982    0.0000 C   0  0  0  0  0  0  0  0  0  0  0  0
   22.7435  -15.2310    0.0000 C   0  0  0  0  0  0  0  0  0  0  0  0
   22.6337  -13.9233    0.0000 C   0  0  0  0  0  0  0  0  0  0  0  0
   18.2198  -15.2887    0.0000 C   0  0  0  0  0  0  0  0  0  0  0  0
   17.0216  -17.3022    0.0000 C   0  0  0  0  0  0  0  0  0  0  0  0
   18.2020  -19.2926    0.0000 C   0  0  0  0  0  0  0  0  0  0  0  0
   23.6808  -13.2580    0.0000 C   0  0  0  0  0  0  0  0  0  0  0  0
   17.0390  -18.6328    0.0000 C   0  0  0  0  0  0  0  0  0  0  0  0
   15.8414  -16.6542    0.0000 C   0  0  0  0  0  0  0  0  0  0  0  0
   15.8992  -19.3387    0.0000 C   0  0  0  0  0  0  0  0  0  0  0  0
   14.6901  -17.3484    0.0000 C   0  0  0  0  0  0  0  0  0  0  0  0
   14.7190  -18.6967    0.0000 C   0  0  0  0  0  0  0  0  0  0  0  0
   13.5735  -19.3908    0.0000 O   0  0  0  0  0  0  0  0  0  0  0  0
   21.5923  -12.9182    0.0000 O   0  0  0  0  0  0  0  0  0  0  0  0
    5.3900  -17.3600    0.0000 C   0  0  0  0  0  0  0  0  0  0  0  0
    5.3900  -18.7600    0.0000 C   0  0  0  0  0  0  0  0  0  0  0  0
    6.6024  -19.4600    0.0000 C   0  0  0  0  0  0  0  0  0  0  0  0
    7.8149  -18.7600    0.0000 C   0  0  0  0  0  0  0  0  0  0  0  0
    7.8149  -17.3600    0.0000 C   0  0  0  0  0  0  0  0  0  0  0  0
    6.6024  -16.6600    0.0000 C   0  0  0  0  0  0  0  0  0  0  0  0
    9.0273  -19.4600    0.0000 C   0  0  0  0  0  0  0  0  0  0  0  0
   10.2397  -18.7600    0.0000 C   0  0  0  0  0  0  0  0  0  0  0  0
   10.2397  -17.3600    0.0000 C   0  0  0  0  0  0  0  0  0  0  0  0
    9.0273  -16.6600    0.0000 C   0  0  0  0  0  0  0  0  0  0  0  0
   11.4522  -16.6600    0.0000 C   0  0  0  0  0  0  0  0  0  0  0  0
   11.4522  -15.2600    0.0000 C   0  0  0  0  0  0  0  0  0  0  0  0
   10.2397  -14.5600    0.0000 C   0  0  0  0  0  0  0  0  0  0  0  0
    9.0273  -15.2600    0.0000 C   0  0  0  0  0  0  0  0  0  0  0  0
   13.8770  -16.6600    0.0000 C   0  0  0  0  0  0  0  0  0  0  0  0
   13.8770  -15.2600    0.0000 C   0  0  0  0  0  0  0  0  0  0  0  0
   12.6646  -14.5600    0.0000 C   0  0  0  0  0  0  0  0  0  0  0  0
    4.1776  -19.4600    0.0000 O   0  0  0  0  0  0  0  0  0  0  0  0
   11.4522  -13.8600    0.0000 C   0  0  0  0  0  0  0  0  0  0  0  0
   12.6646  -13.1600    0.0000 O   0  0  0  0  0  0  0  0  0  0  0  0
   13.8770  -13.8600    0.0000 C   0  0  0  0  0  0  0  0  0  0  0  0
   15.0895  -13.1600    0.0000 C   0  0  0  0  0  0  0  0  0  0  0  0
   10.2608  -13.1719    0.0000 C   0  0  0  0  0  0  0  0  0  0  0  0
  1  2  1  0
  1  3  1  0
  1  4  1  1
  2  5  1  0
  2  6  1  0
  2  7  1  1
  3  8  1  0
  3  9  1  6
  4 10  1  0
  5 11  1  0
  6 12  1  0
  8 13  1  0
  9 14  1  0
 11 15  3  0
 13 16  2  0
 13 17  1  0
 16 18  1  0
 17 19  2  0
 18 20  2  0
 20 21  1  0
  5 10  1  0
  8 12  1  1
 14 16  1  0
 19 20  1  0
  5 22  1  1
 23 24  1  0
 24 25  1  0
 25 26  2  0
 26 27  1  0
 27 28  1  6
 23 28  1  0
 26 29  1  0
 29 30  1  0
 31 30  1  6
 31 32  1  0
 27 32  1  0
 31 33  1  0
 33 34  1  0
 34 35  1  0
 35 36  1  0
 32 36  1  1
 33 37  1  1
 37 38  1  0
 38 39  1  0
 34 39  1  0
 24 40  2  0
 34 41  1  1
 39 42  1  1
 39 43  1  0
 43 44  3  0
 41 45  1  0
M  END
