57503849
     RDKit          2D

 86 88  0  0  1  0  0  0  0  0999 V2000
    6.5991    3.6200    0.0000 O   0  0  0  0  0  0  0  0  0  0  0  0
    5.7331    5.1200    0.0000 O   0  0  0  0  0  0  0  0  0  0  0  0
    8.3312    5.6200    0.0000 O   0  0  0  0  0  0  0  0  0  0  0  0
    8.3312    2.6200    0.0000 O   0  0  0  0  0  0  0  0  0  0  0  0
    4.8671    2.6200    0.0000 O   0  0  0  0  0  0  0  0  0  0  0  0
    3.1350    3.6200    0.0000 O   0  0  0  0  0  0  0  0  0  0  0  0
    3.1350    5.6200    0.0000 O   0  0  0  0  0  0  0  0  0  0  0  0
   10.0632    3.6200    0.0000 O   0  0  0  0  0  0  0  0  0  0  0  0
   10.0632    5.6200    0.0000 O   0  0  0  0  0  0  0  0  0  0  0  0
    7.4651   16.9669    0.0000 O   0  0  0  0  0  0  0  0  0  0  0  0
    5.7331   16.9669    0.0000 O   0  0  0  0  0  0  0  0  0  0  0  0
    8.3312   14.4669    0.0000 O   0  0  0  0  0  0  0  0  0  0  0  0
    6.5991    6.6200    0.0000 O   0  0  0  0  0  0  0  0  0  0  0  0
    4.0010    7.1200    0.0000 O   0  0  0  0  0  0  0  0  0  0  0  0
    5.7331   15.9669    0.0000 O   0  0  0  0  0  0  0  0  0  0  0  0
    7.4651   18.9669    0.0000 O   0  0  0  0  0  0  0  0  0  0  0  0
    5.7331   19.9669    0.0000 O   0  0  0  0  0  0  0  0  0  0  0  0
    4.0010   18.9669    0.0000 O   0  0  0  0  0  0  0  0  0  0  0  0
    5.7331   13.9669    0.0000 O   0  0  0  0  0  0  0  0  0  0  0  0
    7.4651   12.9669    0.0000 O   0  0  0  0  0  0  0  0  0  0  0  0
   10.0632   15.4669    0.0000 O   0  0  0  0  0  0  0  0  0  0  0  0
    3.1350   17.4669    0.0000 O   0  0  0  0  0  0  0  0  0  0  0  0
   10.0632    0.6200    0.0000 O   0  0  0  0  0  0  0  0  0  0  0  0
    3.1350    0.6200    0.0000 O   0  0  0  0  0  0  0  0  0  0  0  0
    0.5369    4.1200    0.0000 O   0  0  0  0  0  0  0  0  0  0  0  0
    2.2690    8.1200    0.0000 O   0  0  0  0  0  0  0  0  0  0  0  0
   12.6613    4.1200    0.0000 O   0  0  0  0  0  0  0  0  0  0  0  0
   10.9292    8.1200    0.0000 O   0  0  0  0  0  0  0  0  0  0  0  0
    8.3312    8.6200    0.0000 O   0  0  0  0  0  0  0  0  0  0  0  0
    4.8671    9.6200    0.0000 O   0  0  0  0  0  0  0  0  0  0  0  0
    7.4651    4.1200    0.0000 C   0  0  0  0  0  0  0  0  0  0  0  0
    8.3312    3.6200    0.0000 C   0  0  0  0  0  0  0  0  0  0  0  0
    4.8671    3.6200    0.0000 C   0  0  0  0  0  0  0  0  0  0  0  0
    4.0010    4.1200    0.0000 C   0  0  0  0  0  0  0  0  0  0  0  0
    5.7331    4.1200    0.0000 C   0  0  0  0  0  0  0  0  0  0  0  0
    4.0010    5.1200    0.0000 C   0  0  0  0  0  0  0  0  0  0  0  0
    7.4651    5.1200    0.0000 C   0  0  0  0  0  0  0  0  0  0  0  0
    9.1972    4.1200    0.0000 C   0  0  0  0  0  0  0  0  0  0  0  0
    4.8671    5.6200    0.0000 C   0  0  0  0  0  0  0  0  0  0  0  0
    9.1972    5.1200    0.0000 C   0  0  0  0  0  0  0  0  0  0  0  0
    6.5991    5.6200    0.0000 C   0  0  0  0  0  0  0  0  0  0  0  0
    4.8671    6.6200    0.0000 C   0  0  0  0  0  0  0  0  0  0  0  0
    7.4651   15.9669    0.0000 C   0  0  0  0  0  0  0  0  0  0  0  0
    6.5991   15.4669    0.0000 C   0  0  0  0  0  0  0  0  0  0  0  0
    6.5991   17.4669    0.0000 C   0  0  0  0  0  0  0  0  0  0  0  0
    6.5991   18.4669    0.0000 C   0  0  0  0  0  0  0  0  0  0  0  0
    5.7331   18.9669    0.0000 C   0  0  0  0  0  0  0  0  0  0  0  0
    8.3312   15.4669    0.0000 C   0  0  0  0  0  0  0  0  0  0  0  0
    4.8671   18.4669    0.0000 C   0  0  0  0  0  0  0  0  0  0  0  0
    6.5991   14.4669    0.0000 C   0  0  0  0  0  0  0  0  0  0  0  0
    4.8671   17.4669    0.0000 C   0  0  0  0  0  0  0  0  0  0  0  0
    7.4651   13.9669    0.0000 C   0  0  0  0  0  0  0  0  0  0  0  0
    9.1972    2.1200    0.0000 C   0  0  0  0  0  0  0  0  0  0  0  0
    4.0010    2.1200    0.0000 C   0  0  0  0  0  0  0  0  0  0  0  0
    2.2690    4.1200    0.0000 C   0  0  0  0  0  0  0  0  0  0  0  0
    3.1350    6.6200    0.0000 C   0  0  0  0  0  0  0  0  0  0  0  0
   10.9292    4.1200    0.0000 C   0  0  0  0  0  0  0  0  0  0  0  0
    9.1972   15.9669    0.0000 C   0  0  0  0  0  0  0  0  0  0  0  0
   10.0632    6.6200    0.0000 C   0  0  0  0  0  0  0  0  0  0  0  0
    4.0010   16.9669    0.0000 C   0  0  0  0  0  0  0  0  0  0  0  0
    9.1972    1.1200    0.0000 C   0  0  0  0  0  0  0  0  0  0  0  0
    4.0010    1.1200    0.0000 C   0  0  0  0  0  0  0  0  0  0  0  0
    1.4030    3.6200    0.0000 C   0  0  0  0  0  0  0  0  0  0  0  0
    2.2690    7.1200    0.0000 C   0  0  0  0  0  0  0  0  0  0  0  0
   11.7953    3.6200    0.0000 C   0  0  0  0  0  0  0  0  0  0  0  0
    7.4651    7.1200    0.0000 C   0  0  0  0  0  0  0  0  0  0  0  0
    4.0010    8.1200    0.0000 C   0  0  0  0  0  0  0  0  0  0  0  0
   10.9292    7.1200    0.0000 C   0  0  0  0  0  0  0  0  0  0  0  0
    8.3312    0.6200    0.0000 C   0  0  0  0  0  0  0  0  0  0  0  0
    4.8671    0.6200    0.0000 C   0  0  0  0  0  0  0  0  0  0  0  0
    7.4651    8.1200    0.0000 C   0  0  0  0  0  0  0  0  0  0  0  0
    1.4030    2.6200    0.0000 C   0  0  0  0  0  0  0  0  0  0  0  0
    4.8671   15.4669    0.0000 C   0  0  0  0  0  0  0  0  0  0  0  0
    1.4030    6.6200    0.0000 C   0  0  0  0  0  0  0  0  0  0  0  0
    4.8671    8.6200    0.0000 C   0  0  0  0  0  0  0  0  0  0  0  0
    7.4651   19.9669    0.0000 C   0  0  0  0  0  0  0  0  0  0  0  0
    4.8671   20.4669    0.0000 C   0  0  0  0  0  0  0  0  0  0  0  0
   11.7953    2.6200    0.0000 C   0  0  0  0  0  0  0  0  0  0  0  0
    3.1350   18.4669    0.0000 C   0  0  0  0  0  0  0  0  0  0  0  0
    5.7331   12.9669    0.0000 C   0  0  0  0  0  0  0  0  0  0  0  0
   11.7953    6.6200    0.0000 C   0  0  0  0  0  0  0  0  0  0  0  0
    8.3312   12.4669    0.0000 C   0  0  0  0  0  0  0  0  0  0  0  0
    6.5991    8.6200    0.0000 C   0  0  0  0  0  0  0  0  0  0  0  0
   10.9292   15.9669    0.0000 C   0  0  0  0  0  0  0  0  0  0  0  0
    5.7331    8.1200    0.0000 C   0  0  0  0  0  0  0  0  0  0  0  0
    2.2690   16.9669    0.0000 C   0  0  0  0  0  0  0  0  0  0  0  0
 31  1  1  6
 35  1  1  1
  2 35  1  0
  2 39  1  0
  3 37  1  0
  3 40  1  0
 32  4  1  1
  4 53  1  0
 33  5  1  6
  5 54  1  0
 34  6  1  1
  6 55  1  0
 36  7  1  6
  7 56  1  0
 38  8  1  6
  8 57  1  0
 40  9  1  1
  9 59  1  0
 43 10  1  6
 45 10  1  6
 11 45  1  0
 11 51  1  0
 12 48  1  0
 12 52  1  0
 13 41  1  0
 13 66  1  0
 14 42  1  0
 14 67  1  0
 44 15  1  1
 15 73  1  0
 46 16  1  1
 16 76  1  0
 47 17  1  6
 17 77  1  0
 49 18  1  1
 18 79  1  0
 50 19  1  6
 19 80  1  0
 52 20  1  1
 20 82  1  0
 21 58  1  0
 21 84  1  0
 22 60  1  0
 22 86  1  0
 23 61  1  0
 24 62  1  0
 25 63  1  0
 26 64  1  0
 27 65  1  0
 28 68  1  0
 29 71  1  0
 30 75  1  0
 31 32  1  0
 31 37  1  0
 32 38  1  0
 33 34  1  0
 33 35  1  0
 34 36  1  0
 36 39  1  0
 37 41  1  1
 38 40  1  0
 39 42  1  1
 43 44  1  0
 43 48  1  0
 44 50  1  0
 45 46  1  0
 46 47  1  0
 47 49  1  0
 48 58  1  1
 49 51  1  0
 50 52  1  0
 51 60  1  6
 53 61  1  0
 54 62  1  0
 55 63  1  0
 56 64  1  0
 57 65  1  0
 59 68  1  0
 61 69  1  0
 62 70  1  0
 63 72  1  0
 64 74  1  0
 65 78  1  0
 66 71  1  0
 67 75  1  0
 68 81  1  0
 71 83  1  0
 75 85  1  0
M  END
