 
     RDKit          2D

 22 23  0  0  0  0  0  0  0  0999 V2000
   24.1500  -18.2700    0.0000 C   0  0  0  0  0  0  0  0  0  0  0  0
   24.1500  -19.6700    0.0000 C   0  0  0  0  0  0  0  0  0  0  0  0
   25.3400  -17.6400    0.0000 C   0  0  0  0  0  0  0  0  0  0  0  0
   22.8900  -17.5700    0.0000 C   0  0  0  0  0  0  0  0  0  0  0  0
   25.3400  -20.3700    0.0000 C   0  0  0  0  0  0  0  0  0  0  0  0
   22.8900  -20.3700    0.0000 C   0  0  0  0  0  0  0  0  0  0  0  0
   26.5300  -18.3400    0.0000 N   0  0  0  0  0  0  0  0  0  0  0  0
   25.3400  -16.2400    0.0000 N   0  0  0  0  0  0  0  0  0  0  0  0
   21.7000  -18.2700    0.0000 C   0  0  0  0  0  0  0  0  0  0  0  0
   26.5300  -19.7400    0.0000 N   0  0  0  0  0  0  0  0  0  0  0  0
   21.7000  -19.6700    0.0000 C   0  0  0  0  0  0  0  0  0  0  0  0
   26.6000  -15.5400    0.0000 N   0  0  0  0  0  0  0  0  0  0  0  0
   -1.0717   -0.2062    0.0000 C   0  0  0  0  0  0  0  0  0  0  0  0
   -1.0717   -1.0313    0.0000 C   0  0  0  0  0  0  0  0  0  0  0  0
   -0.3572   -1.4438    0.0000 C   0  0  0  0  0  0  0  0  0  0  0  0
    0.3572   -1.0313    0.0000 C   0  0  0  0  0  0  0  0  0  0  0  0
    0.3572   -0.2062    0.0000 C   0  0  0  0  0  0  0  0  0  0  0  0
   -0.3572    0.2062    0.0000 C   0  0  0  0  0  0  0  0  0  0  0  0
   -0.3572    1.0313    0.0000 C   0  0  0  0  0  0  0  0  0  0  0  0
   -1.0717    1.4438    0.0000 *   0  0  0  0  0  0  0  0  0  0  0  0
    0.3572    1.4438    0.0000 C   0  0  0  0  0  0  0  0  0  0  0  0
    1.0717    1.0313    0.0000 *   0  0  0  0  0  0  0  0  0  0  0  0
  1  2  2  0
  1  3  1  0
  1  4  1  0
  2  5  1  0
  2  6  1  0
  3  7  1  0
  3  8  2  0
  4  9  2  0
  5 10  2  0
  6 11  2  0
  8 12  1  0
  7 10  1  0
  9 11  1  0
 13 14  2  0
 14 15  1  0
 15 16  2  0
 16 17  1  0
 17 18  2  0
 18 13  1  0
 18 19  1  0
 19 20  1  0
 19 21  1  0
 21 22  1  0
V   20 *
V   22 *
M  END
