71573-17-6.mol
     RDKit          2D

 32 32  0  0  1  0  0  0  0  0999 V2000
    0.4804    1.4560    0.0000 P   0  0  0  0  0  0  0  0  0  0  0  0
    0.7799    2.8532    0.0000 P   0  0  0  0  0  0  0  0  0  0  0  0
    1.0795    4.2505    0.0000 P   0  0  0  0  0  0  0  0  0  0  0  0
   -0.0516   -1.3929    0.0000 O   0  0  0  0  0  0  0  0  0  0  0  0
    1.8870   -0.4988    0.0000 O   0  0  0  0  0  0  0  0  0  0  0  0
    0.7340    0.6709    0.0000 O   0  0  0  0  0  0  0  0  0  0  0  0
    0.2268    2.2411    0.0000 O   0  0  0  0  0  0  0  0  0  0  0  0
    1.2655    1.7096    0.0000 O   0  0  0  0  0  0  0  0  0  0  0  0
   -0.3047    1.2025    0.0000 O   0  0  0  0  0  0  0  0  0  0  0  0
    1.3331    3.4654    0.0000 O   0  0  0  0  0  0  0  0  0  0  0  0
    0.1678    3.4063    0.0000 O   0  0  0  0  0  0  0  0  0  0  0  0
    1.3921    2.3002    0.0000 O   0  0  0  0  0  0  0  0  0  0  0  0
    0.8258    5.0356    0.0000 O   0  0  0  0  0  0  0  0  0  0  0  0
    1.8645    4.5041    0.0000 O   0  0  0  0  0  0  0  0  0  0  0  0
    0.2944    3.9969    0.0000 O   0  0  0  0  0  0  0  0  0  0  0  0
    0.1759   -2.8454    0.0000 N   0  0  0  0  0  0  0  0  0  0  0  0
    0.1759   -4.1732    0.0000 N   0  0  0  0  0  0  0  0  0  0  0  0
   -1.3193   -2.6843    0.0000 N   0  0  0  0  0  0  0  0  0  0  0  0
   -2.0338   -3.9218    0.0000 N   0  0  0  0  0  0  0  0  0  0  0  0
   -1.3193   -5.1593    0.0000 N   0  0  0  0  0  0  0  0  0  0  0  0
    1.2186   -0.9826    0.0000 C   0  0  0  0  0  0  0  0  0  0  0  0
    0.4345   -0.7263    0.0000 C   0  0  0  0  0  0  0  0  0  0  0  0
    0.4321   -2.0612    0.0000 C   0  0  0  0  0  0  0  0  0  0  0  0
    1.2172   -1.8076    0.0000 C   0  0  0  0  0  0  0  0  0  0  0  0
    0.1809    0.0588    0.0000 C   0  0  0  0  0  0  0  0  0  0  0  0
   -0.6048   -3.0968    0.0000 C   0  0  0  0  0  0  0  0  0  0  0  0
    0.6574   -3.5093    0.0000 C   0  0  0  0  0  0  0  0  0  0  0  0
   -0.6048   -3.9218    0.0000 C   0  0  0  0  0  0  0  0  0  0  0  0
   -1.3193   -4.3343    0.0000 C   0  0  0  0  0  0  0  0  0  0  0  0
   -2.0338   -3.0968    0.0000 C   0  0  0  0  0  0  0  0  0  0  0  0
   -0.6173    3.1528    0.0000 Na  0  0  0  0  0 15  0  0  0  0  0  0
    2.4767    3.9510    0.0000 Na  0  0  0  0  0 15  0  0  0  0  0  0
  1  6  1  0
  1  7  1  0
  1  8  1  0
  1  9  2  0
  2  7  1  0
  2 10  1  0
  2 11  1  0
  2 12  2  0
  3 10  1  0
  3 13  1  0
  3 14  1  0
  3 15  2  0
  4 22  1  0
  4 23  1  0
  5 21  1  0
  6 25  1  0
 16 23  1  0
 16 26  1  0
 16 27  1  0
 17 27  2  0
 17 28  1  0
 18 26  1  0
 18 30  2  0
 19 29  2  0
 19 30  1  0
 20 29  1  0
 21 22  1  0
 21 24  1  0
 22 25  1  0
 23 24  1  0
 26 28  2  0
 28 29  1  0
M  CHG  4  11  -1  14  -1  31   1  32   1
V    1 0
V    2 1
V    3 2
V    4 5
V    5 6
V    6 7
V    7 8
V    8 9
V    9 10
V   10 11
V   11 12
V   12 13
V   13 14
V   14 15
V   15 16
V   16 17
V   17 18
V   18 19
V   19 20
V   20 21
V   21 22
V   22 23
V   23 24
V   24 25
V   25 26
V   26 27
V   27 28
V   28 29
V   29 30
V   30 31
V   31 3
V   32 4
M  END
