 
     RDKit          2D

 69 78  0  0  1  0  0  0  0  0999 V2000
   20.4641  -16.5790    0.0000 C   0  0  0  0  0  0  0  0  0  0  0  0
   20.4525  -15.2599    0.0000 C   0  0  0  0  0  0  0  0  0  0  0  0
   19.3184  -17.2675    0.0000 C   0  0  0  0  0  0  0  0  0  0  0  0
   22.7610  -16.5558    0.0000 C   0  0  0  0  0  0  0  0  0  0  0  0
   21.5923  -14.5829    0.0000 C   0  0  0  0  0  0  0  0  0  0  0  0
   19.2897  -14.6060    0.0000 C   0  0  0  0  0  0  0  0  0  0  0  0
   20.4069  -13.9233    0.0000 C   0  0  0  0  0  0  0  0  0  0  0  0
   18.1671  -16.6137    0.0000 C   0  0  0  0  0  0  0  0  0  0  0  0
   19.3474  -18.5982    0.0000 C   0  0  0  0  0  0  0  0  0  0  0  0
   22.7435  -15.2310    0.0000 C   0  0  0  0  0  0  0  0  0  0  0  0
   22.6337  -13.9233    0.0000 C   0  0  0  0  0  0  0  0  0  0  0  0
   18.2198  -15.2887    0.0000 C   0  0  0  0  0  0  0  0  0  0  0  0
   17.0216  -17.3022    0.0000 C   0  0  0  0  0  0  0  0  0  0  0  0
   18.2020  -19.2926    0.0000 C   0  0  0  0  0  0  0  0  0  0  0  0
   23.6808  -13.2580    0.0000 C   0  0  0  0  0  0  0  0  0  0  0  0
   17.0390  -18.6328    0.0000 C   0  0  0  0  0  0  0  0  0  0  0  0
   15.8414  -16.6542    0.0000 C   0  0  0  0  0  0  0  0  0  0  0  0
   15.8992  -19.3387    0.0000 C   0  0  0  0  0  0  0  0  0  0  0  0
   14.6901  -17.3484    0.0000 C   0  0  0  0  0  0  0  0  0  0  0  0
   14.7190  -18.6967    0.0000 C   0  0  0  0  0  0  0  0  0  0  0  0
   13.5735  -19.3908    0.0000 O   0  0  0  0  0  0  0  0  0  0  0  0
   21.5923  -12.9182    0.0000 O   0  0  0  0  0  0  0  0  0  0  0  0
   26.8452  -17.3412    0.0000 C   0  0  0  0  0  0  0  0  0  0  0  0
   26.8512  -15.9656    0.0000 C   0  0  0  0  0  0  0  0  0  0  0  0
   25.6547  -18.0321    0.0000 C   0  0  0  0  0  0  0  0  0  0  0  0
   29.2262  -17.3473    0.0000 C   0  0  0  0  0  0  0  0  0  0  0  0
   28.0417  -15.2747    0.0000 C   0  0  0  0  0  0  0  0  0  0  0  0
   25.6484  -15.2810    0.0000 C   0  0  0  0  0  0  0  0  0  0  0  0
   26.8019  -14.4420    0.0000 C   0  0  0  0  0  0  0  0  0  0  0  0
   24.4702  -17.3536    0.0000 C   0  0  0  0  0  0  0  0  0  0  0  0
   25.5970  -19.4015    0.0000 C   0  0  0  0  0  0  0  0  0  0  0  0
   29.2324  -15.9718    0.0000 C   0  0  0  0  0  0  0  0  0  0  0  0
   29.1954  -14.5962    0.0000 C   0  0  0  0  0  0  0  0  0  0  0  0
   28.0357  -13.5161    0.0000 O   0  0  0  0  0  0  0  0  0  0  0  0
   24.5279  -15.9779    0.0000 C   0  0  0  0  0  0  0  0  0  0  0  0
   23.2921  -18.0384    0.0000 C   0  0  0  0  0  0  0  0  0  0  0  0
   24.4826  -20.0800    0.0000 C   0  0  0  0  0  0  0  0  0  0  0  0
   30.3488  -13.9116    0.0000 C   0  0  0  0  0  0  0  0  0  0  0  0
   23.2921  -19.3954    0.0000 C   0  0  0  0  0  0  0  0  0  0  0  0
   22.1200  -17.3720    0.0000 C   0  0  0  0  0  0  0  0  0  0  0  0
   22.1200  -20.0800    0.0000 C   0  0  0  0  0  0  0  0  0  0  0  0
   20.9542  -18.0384    0.0000 C   0  0  0  0  0  0  0  0  0  0  0  0
   20.9542  -19.3954    0.0000 C   0  0  0  0  0  0  0  0  0  0  0  0
   19.7884  -20.0616    0.0000 O   0  0  0  0  0  0  0  0  0  0  0  0
   26.8820  -17.0674    0.0000 C   0  0  0  0  0  0  0  0  0  0  0  0
   28.0682  -16.3895    0.0000 C   0  0  0  0  0  0  0  0  0  0  0  0
   26.8705  -18.4405    0.0000 C   0  0  0  0  0  0  0  0  0  0  0  0
   25.7075  -16.3836    0.0000 C   0  0  0  0  0  0  0  0  0  0  0  0
   26.8762  -15.7000    0.0000 C   0  0  0  0  0  0  0  0  0  0  0  0
   29.2545  -17.0791    0.0000 C   0  0  0  0  0  0  0  0  0  0  0  0
   28.0567  -15.0162    0.0000 O   0  0  0  0  0  0  0  0  0  0  0  0
   29.2487  -15.7000    0.0000 C   0  0  0  0  0  0  0  0  0  0  0  0
   25.6842  -19.1184    0.0000 C   0  0  0  0  0  0  0  0  0  0  0  0
   29.2429  -18.3822    0.0000 C   0  0  0  0  0  0  0  0  0  0  0  0
   24.5155  -17.0557    0.0000 C   0  0  0  0  0  0  0  0  0  0  0  0
   28.0567  -13.6548    0.0000 C   0  0  0  0  0  0  0  0  0  0  0  0
   30.4292  -15.0105    0.0000 C   0  0  0  0  0  0  0  0  0  0  0  0
   24.5038  -18.4231    0.0000 C   0  0  0  0  0  0  0  0  0  0  0  0
   25.6842  -20.4917    0.0000 C   0  0  0  0  0  0  0  0  0  0  0  0
   29.2429  -12.9710    0.0000 C   0  0  0  0  0  0  0  0  0  0  0  0
   26.8762  -12.9769    0.0000 O   0  0  0  0  0  0  0  0  0  0  0  0
   23.3175  -19.1009    0.0000 C   0  0  0  0  0  0  0  0  0  0  0  0
   24.4921  -21.1696    0.0000 C   0  0  0  0  0  0  0  0  0  0  0  0
   23.3118  -20.4800    0.0000 C   0  0  0  0  0  0  0  0  0  0  0  0
   22.1371  -18.4172    0.0000 C   0  0  0  0  0  0  0  0  0  0  0  0
   22.1371  -21.1636    0.0000 C   0  0  0  0  0  0  0  0  0  0  0  0
   20.9508  -19.1009    0.0000 C   0  0  0  0  0  0  0  0  0  0  0  0
   20.9508  -20.4800    0.0000 C   0  0  0  0  0  0  0  0  0  0  0  0
   19.7588  -21.1579    0.0000 O   0  0  0  0  0  0  0  0  0  0  0  0
  1  2  1  0
  1  3  1  0
  1  4  1  1
  2  5  1  0
  2  6  1  0
  2  7  1  1
  3  8  1  0
  3  9  1  6
  4 10  1  0
  5 11  1  0
  6 12  1  0
  8 13  1  0
  9 14  1  0
 11 15  3  0
 13 16  2  0
 13 17  1  0
 16 18  1  0
 17 19  2  0
 18 20  2  0
 20 21  1  0
  5 10  1  0
  8 12  1  1
 14 16  1  0
 19 20  1  0
  5 22  1  1
 23 24  1  0
 23 25  1  0
 23 26  1  1
 24 27  1  0
 24 28  1  0
 24 29  1  1
 25 30  1  0
 25 31  1  6
 26 32  1  0
 27 33  1  0
 27 34  1  1
 28 35  1  0
 30 36  1  0
 31 37  1  0
 33 38  3  0
 36 39  1  0
 36 40  1  6
 39 41  2  0
 40 42  1  0
 41 43  1  0
 43 44  2  0
 27 32  1  0
 30 35  1  1
 37 39  1  0
 42 43  1  0
 45 46  1  0
 45 47  1  0
 45 48  1  0
 45 49  1  1
 46 50  1  0
 46 51  1  0
 46 52  1  6
 47 53  1  0
 47 54  1  1
 48 55  1  0
 51 56  1  0
 52 57  3  0
 53 58  1  0
 53 59  1  6
 56 60  1  0
 56 61  2  0
 58 62  1  0
 59 63  1  0
 62 64  1  0
 62 65  1  6
 64 66  2  0
 65 67  1  0
 66 68  1  0
 68 69  2  0
 50 54  1  0
 58 55  1  1
 63 64  1  0
 67 68  1  0
M  END
