 
     RDKit          2D

 50 56  0  0  1  0  0  0  0  0999 V2000
   20.4641  -16.5790    0.0000 C   0  0  0  0  0  0  0  0  0  0  0  0
   20.4525  -15.2599    0.0000 C   0  0  0  0  0  0  0  0  0  0  0  0
   19.3184  -17.2675    0.0000 C   0  0  0  0  0  0  0  0  0  0  0  0
   22.7610  -16.5558    0.0000 C   0  0  0  0  0  0  0  0  0  0  0  0
   21.5923  -14.5829    0.0000 C   0  0  0  0  0  0  0  0  0  0  0  0
   19.2897  -14.6060    0.0000 C   0  0  0  0  0  0  0  0  0  0  0  0
   20.4069  -13.9233    0.0000 C   0  0  0  0  0  0  0  0  0  0  0  0
   18.1671  -16.6137    0.0000 C   0  0  0  0  0  0  0  0  0  0  0  0
   19.3474  -18.5982    0.0000 C   0  0  0  0  0  0  0  0  0  0  0  0
   22.7435  -15.2310    0.0000 C   0  0  0  0  0  0  0  0  0  0  0  0
   22.6337  -13.9233    0.0000 C   0  0  0  0  0  0  0  0  0  0  0  0
   18.2198  -15.2887    0.0000 C   0  0  0  0  0  0  0  0  0  0  0  0
   17.0216  -17.3022    0.0000 C   0  0  0  0  0  0  0  0  0  0  0  0
   18.2020  -19.2926    0.0000 C   0  0  0  0  0  0  0  0  0  0  0  0
   23.6808  -13.2580    0.0000 C   0  0  0  0  0  0  0  0  0  0  0  0
   17.0390  -18.6328    0.0000 C   0  0  0  0  0  0  0  0  0  0  0  0
   15.8414  -16.6542    0.0000 C   0  0  0  0  0  0  0  0  0  0  0  0
   15.8992  -19.3387    0.0000 C   0  0  0  0  0  0  0  0  0  0  0  0
   14.6901  -17.3484    0.0000 C   0  0  0  0  0  0  0  0  0  0  0  0
   14.7190  -18.6967    0.0000 C   0  0  0  0  0  0  0  0  0  0  0  0
   13.5735  -19.3908    0.0000 O   0  0  0  0  0  0  0  0  0  0  0  0
   21.5923  -12.9182    0.0000 O   0  0  0  0  0  0  0  0  0  0  0  0
   25.9821  -16.3855    0.0000 C   0  0  0  0  0  0  0  0  0  0  0  0
   24.8055  -17.0671    0.0000 C   0  0  0  0  0  0  0  0  0  0  0  0
   27.1588  -17.0729    0.0000 C   0  0  0  0  0  0  0  0  0  0  0  0
   27.1645  -15.6981    0.0000 C   0  0  0  0  0  0  0  0  0  0  0  0
   25.9704  -15.0167    0.0000 O   0  0  0  0  0  0  0  0  0  0  0  0
   24.8055  -18.4243    0.0000 C   0  0  0  0  0  0  0  0  0  0  0  0
   23.6288  -16.3798    0.0000 C   0  0  0  0  0  0  0  0  0  0  0  0
   24.7996  -15.6807    0.0000 C   0  0  0  0  0  0  0  0  0  0  0  0
   27.1529  -18.4302    0.0000 C   0  0  0  0  0  0  0  0  0  0  0  0
   23.6230  -19.1059    0.0000 C   0  0  0  0  0  0  0  0  0  0  0  0
   22.4463  -17.0612    0.0000 C   0  0  0  0  0  0  0  0  0  0  0  0
   22.4406  -18.4243    0.0000 C   0  0  0  0  0  0  0  0  0  0  0  0
   23.6288  -20.4689    0.0000 C   0  0  0  0  0  0  0  0  0  0  0  0
   21.2638  -19.1059    0.0000 C   0  0  0  0  0  0  0  0  0  0  0  0
   22.4463  -21.1563    0.0000 C   0  0  0  0  0  0  0  0  0  0  0  0
   21.2638  -20.4747    0.0000 C   0  0  0  0  0  0  0  0  0  0  0  0
   20.0813  -18.4243    0.0000 C   0  0  0  0  0  0  0  0  0  0  0  0
   20.0813  -21.1563    0.0000 C   0  0  0  0  0  0  0  0  0  0  0  0
   18.8989  -19.1059    0.0000 C   0  0  0  0  0  0  0  0  0  0  0  0
   18.8989  -20.4747    0.0000 C   0  0  0  0  0  0  0  0  0  0  0  0
   17.6922  -21.1720    0.0000 O   0  0  0  0  0  0  0  0  0  0  0  0
   16.4851  -20.4755    0.0000 C   0  0  0  0  0  0  0  0  0  0  0  0
   15.2785  -21.1728    0.0000 C   0  0  0  0  0  0  0  0  0  0  0  0
   16.4846  -19.0819    0.0000 O   0  0  0  0  0  0  0  0  0  0  0  0
   28.3656  -14.9939    0.0000 C   0  0  0  0  0  0  0  0  0  0  0  0
   25.9584  -13.6214    0.0000 C   0  0  0  0  0  0  0  0  0  0  0  0
   27.1593  -12.9141    0.0000 C   0  0  0  0  0  0  0  0  0  0  0  0
   24.7455  -12.9350    0.0000 O   0  0  0  0  0  0  0  0  0  0  0  0
  1  2  1  0
  1  3  1  0
  1  4  1  1
  2  5  1  0
  2  6  1  0
  2  7  1  1
  3  8  1  0
  3  9  1  6
  4 10  1  0
  5 11  1  0
  6 12  1  0
  8 13  1  0
  9 14  1  0
 11 15  3  0
 13 16  2  0
 13 17  1  0
 16 18  1  0
 17 19  2  0
 18 20  2  0
 20 21  1  0
  5 10  1  0
  8 12  1  1
 14 16  1  0
 19 20  1  0
  5 22  1  1
 32 34  1  0
 32 35  1  6
 34 36  1  0
 35 37  1  0
 36 38  1  0
 36 39  1  6
 38 40  2  0
 39 41  1  0
 40 42  1  0
 28 31  1  1
 34 33  1  1
 37 38  1  0
 41 42  1  0
 23 24  1  0
 23 25  1  0
 23 26  1  6
 42 43  1  1
 23 27  1  0
 43 44  1  0
 24 28  1  0
 44 45  1  0
 24 29  1  0
 44 46  2  0
 24 30  1  1
 26 47  3  0
 25 31  1  0
 27 48  1  0
 28 32  1  0
 48 49  1  0
 29 33  1  0
 48 50  2  0
M  END
