 
     RDKit          2D

142147  0  1  1  0  0  0  0  0999 V2000
   20.6500  -19.0400    0.0000 C   0  0  0  0  0  0  0  0  0  0  0  0
   21.7700  -19.6700    0.0000 C   0  0  0  0  0  0  0  0  0  0  0  0
   20.6500  -17.7100    0.0000 C   0  0  0  0  0  0  0  0  0  0  0  0
   19.0400  -19.9500    0.0000 O   0  0  0  0  0  0  0  0  0  0  0  0
   22.8900  -19.0400    0.0000 C   0  0  0  0  0  0  0  0  0  0  0  0
   21.7700  -21.0000    0.0000 O   0  0  0  0  0  0  0  0  0  0  0  0
   21.7700  -17.0800    0.0000 O   0  0  0  0  0  0  0  0  0  0  0  0
   19.4600  -17.0800    0.0000 C   0  0  0  0  0  0  0  0  0  0  0  0
   17.3600  -20.8600    0.0000 C   0  0  0  0  0  0  0  0  0  0  0  0
   22.8900  -17.7100    0.0000 C   0  0  0  0  0  0  0  0  0  0  0  0
   23.9400  -20.2300    0.0000 N   0  0  0  0  0  0  0  0  0  0  0  0
   18.3400  -17.7100    0.0000 O   0  0  0  0  0  0  0  0  0  0  0  0
   17.3600  -22.1900    0.0000 C   0  0  0  0  0  0  0  0  0  0  0  0
   16.2400  -20.2300    0.0000 O   0  0  0  0  0  0  0  0  0  0  0  0
   24.5000  -16.8000    0.0000 O   0  0  0  0  0  0  0  0  0  0  0  0
   25.9000  -20.2300    0.0000 S   0  0  0  0  0  0  0  0  0  0  0  0
   16.2400  -22.8900    0.0000 C   0  0  0  0  0  0  0  0  0  0  0  0
   18.9000  -23.8000    0.0000 O   0  0  0  0  0  0  0  0  0  0  0  0
   15.1200  -20.8600    0.0000 C   0  0  0  0  0  0  0  0  0  0  0  0
   26.1800  -15.8200    0.0000 C   0  0  0  0  0  0  0  0  0  0  0  0
   25.9000  -21.5600    0.0000 O   0  0  0  0  0  0  0  0  0  0  0  0
   25.9000  -18.9000    0.0000 O   0  0  0  0  0  0  0  0  0  0  0  0
   27.2300  -20.2300    0.0000 O   0  0  0  0  0  0  0  0  0  0  0  0
   15.1200  -22.1900    0.0000 C   0  0  0  0  0  0  0  0  0  0  0  0
   16.2400  -24.1500    0.0000 O   0  0  0  0  0  0  0  0  0  0  0  0
   14.0000  -20.2300    0.0000 C   0  0  0  0  0  0  0  0  0  0  0  0
   26.1800  -14.4900    0.0000 C   0  0  0  0  0  0  0  0  0  0  0  0
   27.3000  -16.5200    0.0000 C   0  0  0  0  0  0  0  0  0  0  0  0
   13.9300  -22.8900    0.0000 O   0  0  0  0  0  0  0  0  0  0  0  0
   12.8100  -20.8600    0.0000 O   0  0  0  0  0  0  0  0  0  0  0  0
   14.0000  -18.9000    0.0000 O   0  0  0  0  0  0  0  0  0  0  0  0
   27.3000  -13.8600    0.0000 O   0  0  0  0  0  0  0  0  0  0  0  0
   24.9900  -13.8600    0.0000 C   0  0  0  0  0  0  0  0  0  0  0  0
   28.4200  -15.8200    0.0000 C   0  0  0  0  0  0  0  0  0  0  0  0
   27.3000  -17.7800    0.0000 O   0  0  0  0  0  0  0  0  0  0  0  0
   11.1300  -22.8200    0.0000 *   0  0  0  0  0  0  0  0  0  0  0  0
   28.4200  -14.4900    0.0000 C   0  0  0  0  0  0  0  0  0  0  0  0
   23.8700  -14.4900    0.0000 O   0  0  0  0  0  0  0  0  0  0  0  0
   24.9900  -12.5300    0.0000 O   0  0  0  0  0  0  0  0  0  0  0  0
   30.8700  -17.2900    0.0000 O   0  0  0  0  0  0  0  0  0  0  0  0
   30.0300  -13.5800    0.0000 O   0  0  0  0  0  0  0  0  0  0  0  0
   31.7100  -12.6000    0.0000 C   0  0  0  0  0  0  0  0  0  0  0  0
   31.7100  -11.3400    0.0000 C   0  0  0  0  0  0  0  0  0  0  0  0
   32.8300  -13.3000    0.0000 C   0  0  0  0  0  0  0  0  0  0  0  0
   32.8300  -10.6400    0.0000 O   0  0  0  0  0  0  0  0  0  0  0  0
   30.5200  -10.6400    0.0000 C   0  0  0  0  0  0  0  0  0  0  0  0
   33.9500  -12.6000    0.0000 C   0  0  0  0  0  0  0  0  0  0  0  0
   32.8300  -14.6300    0.0000 O   0  0  0  0  0  0  0  0  0  0  0  0
   33.9500  -11.3400    0.0000 C   0  0  0  0  0  0  0  0  0  0  0  0
   29.2600  -10.6400    0.0000 O   0  0  0  0  0  0  0  0  0  0  0  0
   35.9800  -13.5800    0.0000 N   0  0  0  0  0  0  0  0  0  0  0  0
   36.4000   -9.9400    0.0000 *   0  0  0  0  0  0  0  0  0  0  0  0
   27.9300  -10.6400    0.0000 S   0  0  0  0  0  0  0  0  0  0  0  0
   35.9800  -14.9100    0.0000 C   0  0  0  0  0  0  0  0  0  0  0  0
   27.9300  -11.9700    0.0000 O   0  0  0  0  0  0  0  0  0  0  0  0
   27.9300   -9.3100    0.0000 O   0  0  0  0  0  0  0  0  0  0  0  0
   26.6000  -10.6400    0.0000 O   0  0  0  0  0  0  0  0  0  0  0  0
   37.1700  -15.5400    0.0000 C   0  0  0  0  0  0  0  0  0  0  0  0
   34.8600  -15.5400    0.0000 O   0  0  0  0  0  0  0  0  0  0  0  0
   18.9000  -25.2000    0.0000 S   0  0  0  0  0  0  0  0  0  0  0  0
   18.9000  -26.6000    0.0000 O   0  0  0  0  0  0  0  0  0  0  0  0
   20.3000  -25.2000    0.0000 O   0  0  0  0  0  0  0  0  0  0  0  0
   17.5000  -25.2000    0.0000 O   0  0  0  0  0  0  0  0  0  0  0  0
   21.7700  -22.4000    0.0000 S   0  0  0  0  0  0  0  0  0  0  0  0
   21.7700  -23.8000    0.0000 O   0  0  0  0  0  0  0  0  0  0  0  0
   23.1700  -22.4000    0.0000 O   0  0  0  0  0  0  0  0  0  0  0  0
   20.3700  -22.4000    0.0000 O   0  0  0  0  0  0  0  0  0  0  0  0
   30.8700  -18.6900    0.0000 S   0  0  0  0  0  0  0  0  0  0  0  0
   30.8700  -20.0900    0.0000 O   0  0  0  0  0  0  0  0  0  0  0  0
   32.2700  -18.6900    0.0000 O   0  0  0  0  0  0  0  0  0  0  0  0
   29.4700  -18.6900    0.0000 O   0  0  0  0  0  0  0  0  0  0  0  0
   -0.3572    2.2687    0.0000 O   0  0  0  0  0  0  0  0  0  0  0  0
    0.3572    1.8563    0.0000 C   0  0  0  0  0  0  0  0  0  0  0  0
    0.3572    1.0313    0.0000 C   0  0  0  0  0  0  0  0  0  0  0  0
   -0.3572    0.6187    0.0000 C   0  0  0  0  0  0  0  0  0  0  0  0
   -1.0717    1.0313    0.0000 C   0  0  0  0  0  0  0  0  0  0  0  0
   -1.0717    1.8562    0.0000 C   0  0  0  0  0  0  0  0  0  0  0  0
    1.0717    2.2687    0.0000 C   0  0  0  0  0  0  0  0  0  0  0  0
    1.7862    1.8563    0.0000 O   0  0  0  0  0  0  0  0  0  0  0  0
    1.0717    3.0938    0.0000 O   0  0  0  0  0  0  0  0  0  0  0  0
   -1.7862    0.6187    0.0000 O   0  0  0  0  0  0  0  0  0  0  0  0
   -2.5006    1.0312    0.0000 S   0  0  0  0  0  0  0  0  0  0  0  0
   -2.9131    0.3168    0.0000 O   0  0  0  0  0  0  0  0  0  0  0  0
   -2.0881    1.7457    0.0000 O   0  0  0  0  0  0  0  0  0  0  0  0
   -3.2151    1.4437    0.0000 O   0  0  0  0  0  0  0  0  0  0  0  0
   -0.3572   -0.2062    0.0000 O   0  0  0  0  0  0  0  0  0  0  0  0
    1.0717    0.6187    0.0000 O   0  0  0  0  0  0  0  0  0  0  0  0
    0.3572   -0.6187    0.0000 O   0  0  0  0  0  0  0  0  0  0  0  0
    1.0717   -0.2062    0.0000 C   0  0  0  0  0  0  0  0  0  0  0  0
    1.7862   -0.6187    0.0000 C   0  0  0  0  0  0  0  0  0  0  0  0
    1.7862   -1.4437    0.0000 C   0  0  0  0  0  0  0  0  0  0  0  0
    1.0717   -1.8562    0.0000 C   0  0  0  0  0  0  0  0  0  0  0  0
    0.3572   -1.4437    0.0000 C   0  0  0  0  0  0  0  0  0  0  0  0
    2.5007   -1.8562    0.0000 O   0  0  0  0  0  0  0  0  0  0  0  0
    3.2151   -1.4437    0.0000 S   0  0  0  0  0  0  0  0  0  0  0  0
    3.6276   -2.1582    0.0000 O   0  0  0  0  0  0  0  0  0  0  0  0
    2.8026   -0.7293    0.0000 O   0  0  0  0  0  0  0  0  0  0  0  0
    3.9296   -1.0312    0.0000 O   0  0  0  0  0  0  0  0  0  0  0  0
    2.5007   -0.2062    0.0000 N   0  0  0  0  0  0  0  0  0  0  0  0
    2.5007    0.6188    0.0000 S   0  0  0  0  0  0  0  0  0  0  0  0
    1.6756    0.6188    0.0000 O   0  0  0  0  0  0  0  0  0  0  0  0
    3.3256    0.6188    0.0000 O   0  0  0  0  0  0  0  0  0  0  0  0
    2.5007    1.4438    0.0000 O   0  0  0  0  0  0  0  0  0  0  0  0
   -0.3572   -1.8562    0.0000 C   0  0  0  0  0  0  0  0  0  0  0  0
   -1.0717   -1.4437    0.0000 O   0  0  0  0  0  0  0  0  0  0  0  0
    1.0717   -2.6812    0.0000 O   0  0  0  0  0  0  0  0  0  0  0  0
   -0.3572   -2.6812    0.0000 O   0  0  0  0  0  0  0  0  0  0  0  0
    0.3572   -3.0937    0.0000 C   0  0  0  0  0  0  0  0  0  0  0  0
    0.3572   -3.9187    0.0000 C   0  0  0  0  0  0  0  0  0  0  0  0
   -0.3572   -4.3312    0.0000 C   0  0  0  0  0  0  0  0  0  0  0  0
   -1.0717   -3.9187    0.0000 C   0  0  0  0  0  0  0  0  0  0  0  0
   -1.0717   -3.0938    0.0000 C   0  0  0  0  0  0  0  0  0  0  0  0
    1.0717   -4.3312    0.0000 O   0  0  0  0  0  0  0  0  0  0  0  0
    1.0717   -5.1562    0.0000 S   0  0  0  0  0  0  0  0  0  0  0  0
    0.2467   -5.1562    0.0000 O   0  0  0  0  0  0  0  0  0  0  0  0
    1.8967   -5.1562    0.0000 O   0  0  0  0  0  0  0  0  0  0  0  0
    1.0717   -5.9812    0.0000 O   0  0  0  0  0  0  0  0  0  0  0  0
   -1.7862   -4.3312    0.0000 O   0  0  0  0  0  0  0  0  0  0  0  0
   -0.3572   -5.1563    0.0000 O   0  0  0  0  0  0  0  0  0  0  0  0
   -1.7862   -2.6812    0.0000 C   0  0  0  0  0  0  0  0  0  0  0  0
   -2.5006   -3.0938    0.0000 O   0  0  0  0  0  0  0  0  0  0  0  0
   -1.7862   -1.8563    0.0000 O   0  0  0  0  0  0  0  0  0  0  0  0
   -1.7862    2.2687    0.0000 O   0  0  0  0  0  0  0  0  0  0  0  0
   -1.0717    4.3312    0.0000 O   0  0  0  0  0  0  0  0  0  0  0  0
   -1.0717    3.5062    0.0000 C   0  0  0  0  0  0  0  0  0  0  0  0
   -1.7862    3.0937    0.0000 C   0  0  0  0  0  0  0  0  0  0  0  0
   -2.5006    3.5062    0.0000 C   0  0  0  0  0  0  0  0  0  0  0  0
   -2.5006    4.3312    0.0000 C   0  0  0  0  0  0  0  0  0  0  0  0
   -1.7862    4.7437    0.0000 C   0  0  0  0  0  0  0  0  0  0  0  0
   -0.3572    3.0938    0.0000 C   0  0  0  0  0  0  0  0  0  0  0  0
    0.3572    3.5062    0.0000 O   0  0  0  0  0  0  0  0  0  0  0  0
    0.3572    4.3312    0.0000 S   0  0  0  0  0  0  0  0  0  0  0  0
    1.1822    4.3312    0.0000 O   0  0  0  0  0  0  0  0  0  0  0  0
   -0.4678    4.3312    0.0000 O   0  0  0  0  0  0  0  0  0  0  0  0
    0.3572    5.1563    0.0000 O   0  0  0  0  0  0  0  0  0  0  0  0
   -1.7862    5.5687    0.0000 O   0  0  0  0  0  0  0  0  0  0  0  0
   -3.2151    3.0937    0.0000 O   0  0  0  0  0  0  0  0  0  0  0  0
   -3.2151    5.5687    0.0000 C   0  0  0  0  0  0  0  0  0  0  0  0
   -3.9296    5.9812    0.0000 C   0  0  0  0  0  0  0  0  0  0  0  0
   -2.5006    5.9812    0.0000 O   0  0  0  0  0  0  0  0  0  0  0  0
   -3.2151    4.7437    0.0000 N   0  0  0  0  0  0  0  0  0  0  0  0
    0.0000    0.0000    0.0000 Ca  0  0  0  0  0  2  0  0  0  0  0  0
  1  2  1  0
  1  3  1  0
  1  4  1  6
  2  5  1  0
  2  6  1  1
  3  7  1  0
  3  8  1  1
  9  4  1  1
  5 10  1  0
  5 11  1  6
  8 12  1  0
  9 13  1  0
  9 14  1  0
 10 15  1  6
 11 16  1  0
 13 17  1  0
 13 18  1  6
 14 19  1  0
 20 15  1  6
 16 21  1  0
 16 22  2  0
 16 23  2  0
 17 24  1  0
 17 25  1  1
 19 26  1  6
 20 27  1  0
 20 28  1  0
 24 29  1  6
 26 30  1  0
 26 31  2  0
 27 32  1  0
 27 33  1  1
 28 34  1  0
 28 35  1  1
 29 36  1  0
 32 37  1  0
 33 38  1  0
 33 39  2  0
 34 40  1  6
 37 41  1  1
 42 41  1  6
 42 43  1  0
 42 44  1  0
 43 45  1  0
 43 46  1  1
 44 47  1  0
 44 48  1  1
 45 49  1  0
 46 50  1  0
 47 51  1  6
 49 52  1  0
 50 53  1  0
 51 54  1  0
 53 55  1  0
 53 56  2  0
 53 57  2  0
 54 58  1  0
 54 59  2  0
  7 10  1  0
 19 24  1  0
 34 37  1  0
 47 49  1  0
 18 60  1  0
 60 61  2  0
 60 62  2  0
 60 63  1  0
  6 64  1  0
 64 65  2  0
 64 66  2  0
 64 67  1  0
 40 68  1  0
 68 69  2  0
 68 70  2  0
 68 71  1  0
 72 73  1  0
 73 74  1  0
 74 75  1  0
 75 76  1  0
 76 77  1  0
 72 77  1  0
 78 79  2  0
 78 80  1  0
 73 78  1  0
 82 83  2  0
 82 84  2  0
 82 85  1  0
 81 82  1  0
 76 81  1  0
 75 86  1  0
 88 89  1  0
 89 90  1  0
 90 91  1  0
 91 92  1  0
 92 93  1  0
 88 93  1  0
 95 96  2  0
 95 97  2  0
 95 98  1  0
 94 95  1  0
 91 94  1  0
100101  2  0
100102  2  0
100103  1  0
 99100  1  0
 90 99  1  0
104105  1  0
 93104  1  0
107108  1  0
108109  1  0
109110  1  0
110111  1  0
111112  1  0
107112  1  0
114115  2  0
114116  2  0
114117  1  0
113114  1  0
109113  1  0
111118  1  0
110119  1  0
120121  2  0
120122  1  0
112120  1  0
106108  1  0
 92106  1  0
 87 89  1  0
 74 87  1  0
124125  1  0
125126  1  0
126127  1  0
127128  1  0
128129  1  0
124129  1  0
132133  2  0
132134  2  0
132135  1  0
131132  1  0
130131  1  0
125130  1  0
129136  1  0
127137  1  0
138139  1  0
138140  2  0
138141  1  0
128141  1  0
123126  1  0
 77123  1  0
V   36 *
V   52 *
M  STY  1   1 SRU
M  SLB  1   1   1
M  SCN  1   1 HT 
M  SAL   1 15   1   2   3   4   5   6   7   8   9  10  11  12  13  14  15
M  SAL   1 15  16  17  18  19  20  21  22  23  24  25  26  27  28  29  30
M  SAL   1 15  31  32  33  34  35  37  38  39  40  41  42  43  44  45  46
M  SAL   1 15  47  48  49  50  51  53  54  55  56  57  58  59  60  61  62
M  SAL   1  9  63  64  65  66  67  68  69  70  71
M  SDI   1  4   12.3900  -23.4500   12.3900  -22.1200
M  SDI   1  4   35.0000   -9.9400   35.0000  -11.2700
M  SMT   1 n
M  END
