 
     RDKit          2D

 45 51  0  0  1  0  0  0  0  0999 V2000
   19.6000  -28.7000    0.0000 C   0  0  0  0  0  0  0  0  0  0  0  0
   19.6000  -30.1000    0.0000 C   0  0  0  0  0  0  0  0  0  0  0  0
   20.7900  -30.8000    0.0000 C   0  0  0  0  0  0  0  0  0  0  0  0
   21.9800  -30.1000    0.0000 C   0  0  0  0  0  0  0  0  0  0  0  0
   21.9800  -28.7000    0.0000 C   0  0  0  0  0  0  0  0  0  0  0  0
   20.7900  -28.0000    0.0000 C   0  0  0  0  0  0  0  0  0  0  0  0
   23.1700  -30.8000    0.0000 C   0  0  0  0  0  0  0  0  0  0  0  0
   24.3600  -30.1000    0.0000 C   0  0  0  0  0  0  0  0  0  0  0  0
   24.3600  -28.7000    0.0000 C   0  0  0  0  0  0  0  0  0  0  0  0
   23.1700  -28.0000    0.0000 C   0  0  0  0  0  0  0  0  0  0  0  0
   25.5500  -28.0000    0.0000 C   0  0  0  0  0  0  0  0  0  0  0  0
   25.5500  -26.6700    0.0000 C   0  0  0  0  0  0  0  0  0  0  0  0
   24.3600  -25.9700    0.0000 C   0  0  0  0  0  0  0  0  0  0  0  0
   23.1700  -26.6700    0.0000 C   0  0  0  0  0  0  0  0  0  0  0  0
   27.9300  -28.0000    0.0000 C   0  0  0  0  0  0  0  0  0  0  0  0
   27.9300  -26.6700    0.0000 C   0  0  0  0  0  0  0  0  0  0  0  0
   26.7400  -25.9700    0.0000 C   0  0  0  0  0  0  0  0  0  0  0  0
   25.5500  -25.2700    0.0000 C   0  0  0  0  0  0  0  0  0  0  0  0
   26.7400  -24.6400    0.0000 O   0  0  0  0  0  0  0  0  0  0  0  0
   27.9300  -25.2700    0.0000 C   0  0  0  0  0  0  0  0  0  0  0  0
   29.1200  -24.6400    0.0000 C   0  0  0  0  0  0  0  0  0  0  0  0
   24.3600  -24.6400    0.0000 C   0  0  0  0  0  0  0  0  0  0  0  0
   21.9547  -25.9749    0.0000 C   0  0  0  0  0  0  0  0  0  0  0  0
   20.4641  -16.5790    0.0000 C   0  0  0  0  0  0  0  0  0  0  0  0
   20.4525  -15.2599    0.0000 C   0  0  0  0  0  0  0  0  0  0  0  0
   19.3184  -17.2675    0.0000 C   0  0  0  0  0  0  0  0  0  0  0  0
   22.7610  -16.5558    0.0000 C   0  0  0  0  0  0  0  0  0  0  0  0
   21.5923  -14.5829    0.0000 C   0  0  0  0  0  0  0  0  0  0  0  0
   19.2897  -14.6060    0.0000 C   0  0  0  0  0  0  0  0  0  0  0  0
   20.4069  -13.9233    0.0000 C   0  0  0  0  0  0  0  0  0  0  0  0
   18.1671  -16.6137    0.0000 C   0  0  0  0  0  0  0  0  0  0  0  0
   19.3474  -18.5982    0.0000 C   0  0  0  0  0  0  0  0  0  0  0  0
   22.7435  -15.2310    0.0000 C   0  0  0  0  0  0  0  0  0  0  0  0
   22.6337  -13.9233    0.0000 C   0  0  0  0  0  0  0  0  0  0  0  0
   18.2198  -15.2887    0.0000 C   0  0  0  0  0  0  0  0  0  0  0  0
   17.0216  -17.3022    0.0000 C   0  0  0  0  0  0  0  0  0  0  0  0
   18.2020  -19.2926    0.0000 C   0  0  0  0  0  0  0  0  0  0  0  0
   23.6808  -13.2580    0.0000 C   0  0  0  0  0  0  0  0  0  0  0  0
   17.0390  -18.6328    0.0000 C   0  0  0  0  0  0  0  0  0  0  0  0
   15.8414  -16.6542    0.0000 C   0  0  0  0  0  0  0  0  0  0  0  0
   15.8992  -19.3387    0.0000 C   0  0  0  0  0  0  0  0  0  0  0  0
   14.6901  -17.3484    0.0000 C   0  0  0  0  0  0  0  0  0  0  0  0
   14.7190  -18.6967    0.0000 C   0  0  0  0  0  0  0  0  0  0  0  0
   13.5735  -19.3908    0.0000 O   0  0  0  0  0  0  0  0  0  0  0  0
   21.5923  -12.9182    0.0000 O   0  0  0  0  0  0  0  0  0  0  0  0
  1  2  1  0
  2  3  1  0
  3  4  2  0
  4  5  1  0
  5  6  1  6
  1  6  1  0
  4  7  1  0
  7  8  1  0
  9  8  1  6
  9 10  1  0
  5 10  1  0
  9 11  1  0
 11 12  1  0
 12 13  1  0
 13 14  1  0
 10 14  1  1
 11 15  1  1
 15 16  1  0
 16 17  1  0
 12 17  1  0
 12 18  1  1
 17 19  1  1
 17 20  1  0
 20 21  3  0
 18 22  1  0
 14 23  2  0
 24 25  1  0
 24 26  1  0
 24 27  1  1
 25 28  1  0
 25 29  1  0
 25 30  1  1
 26 31  1  0
 26 32  1  6
 27 33  1  0
 28 34  1  0
 29 35  1  0
 31 36  1  0
 32 37  1  0
 34 38  3  0
 36 39  2  0
 36 40  1  0
 39 41  1  0
 40 42  2  0
 41 43  2  0
 43 44  1  0
 28 33  1  0
 31 35  1  1
 37 39  1  0
 42 43  1  0
 28 45  1  1
M  END
