 
     RDKit          2D

 45 51  0  0  1  0  0  0  0  0999 V2000
   26.8452  -17.3412    0.0000 C   0  0  0  0  0  0  0  0  0  0  0  0
   26.8512  -15.9656    0.0000 C   0  0  0  0  0  0  0  0  0  0  0  0
   25.6547  -18.0321    0.0000 C   0  0  0  0  0  0  0  0  0  0  0  0
   29.2262  -17.3473    0.0000 C   0  0  0  0  0  0  0  0  0  0  0  0
   28.0417  -15.2747    0.0000 C   0  0  0  0  0  0  0  0  0  0  0  0
   25.6484  -15.2810    0.0000 C   0  0  0  0  0  0  0  0  0  0  0  0
   26.8019  -14.4420    0.0000 C   0  0  0  0  0  0  0  0  0  0  0  0
   24.4702  -17.3536    0.0000 C   0  0  0  0  0  0  0  0  0  0  0  0
   25.5970  -19.4015    0.0000 C   0  0  0  0  0  0  0  0  0  0  0  0
   29.2324  -15.9718    0.0000 C   0  0  0  0  0  0  0  0  0  0  0  0
   29.1954  -14.5962    0.0000 C   0  0  0  0  0  0  0  0  0  0  0  0
   28.0357  -13.5161    0.0000 O   0  0  0  0  0  0  0  0  0  0  0  0
   24.5279  -15.9779    0.0000 C   0  0  0  0  0  0  0  0  0  0  0  0
   23.2921  -18.0384    0.0000 C   0  0  0  0  0  0  0  0  0  0  0  0
   24.4826  -20.0800    0.0000 C   0  0  0  0  0  0  0  0  0  0  0  0
   30.3488  -13.9116    0.0000 C   0  0  0  0  0  0  0  0  0  0  0  0
   23.2921  -19.3954    0.0000 C   0  0  0  0  0  0  0  0  0  0  0  0
   22.1200  -17.3720    0.0000 C   0  0  0  0  0  0  0  0  0  0  0  0
   22.1200  -20.0800    0.0000 C   0  0  0  0  0  0  0  0  0  0  0  0
   20.9542  -18.0384    0.0000 C   0  0  0  0  0  0  0  0  0  0  0  0
   20.9542  -19.3954    0.0000 C   0  0  0  0  0  0  0  0  0  0  0  0
   19.7884  -20.0616    0.0000 O   0  0  0  0  0  0  0  0  0  0  0  0
   28.4200  -18.3400    0.0000 C   0  0  0  0  0  0  0  0  0  0  0  0
   28.4200  -19.7400    0.0000 C   0  0  0  0  0  0  0  0  0  0  0  0
   29.6100  -20.4400    0.0000 C   0  0  0  0  0  0  0  0  0  0  0  0
   30.8700  -19.7400    0.0000 C   0  0  0  0  0  0  0  0  0  0  0  0
   30.8700  -18.3400    0.0000 C   0  0  0  0  0  0  0  0  0  0  0  0
   29.6100  -17.6400    0.0000 C   0  0  0  0  0  0  0  0  0  0  0  0
   32.0600  -20.4400    0.0000 C   0  0  0  0  0  0  0  0  0  0  0  0
   33.2500  -19.7400    0.0000 C   0  0  0  0  0  0  0  0  0  0  0  0
   33.2500  -18.3400    0.0000 C   0  0  0  0  0  0  0  0  0  0  0  0
   32.0600  -17.6400    0.0000 C   0  0  0  0  0  0  0  0  0  0  0  0
   34.5100  -17.6400    0.0000 C   0  0  0  0  0  0  0  0  0  0  0  0
   34.5100  -16.2400    0.0000 C   0  0  0  0  0  0  0  0  0  0  0  0
   33.2500  -15.5400    0.0000 C   0  0  0  0  0  0  0  0  0  0  0  0
   32.0600  -16.2400    0.0000 C   0  0  0  0  0  0  0  0  0  0  0  0
   36.8900  -17.6400    0.0000 C   0  0  0  0  0  0  0  0  0  0  0  0
   36.8900  -16.2400    0.0000 C   0  0  0  0  0  0  0  0  0  0  0  0
   35.7000  -15.5400    0.0000 C   0  0  0  0  0  0  0  0  0  0  0  0
   27.2300  -20.4400    0.0000 O   0  0  0  0  0  0  0  0  0  0  0  0
   26.0400  -19.7400    0.0000 C   0  0  0  0  0  0  0  0  0  0  0  0
   34.5100  -14.8400    0.0000 C   0  0  0  0  0  0  0  0  0  0  0  0
   35.7000  -13.8600    0.0000 O   0  0  0  0  0  0  0  0  0  0  0  0
   36.8900  -14.8400    0.0000 C   0  0  0  0  0  0  0  0  0  0  0  0
   38.1500  -14.1400    0.0000 C   0  0  0  0  0  0  0  0  0  0  0  0
  1  2  1  0
  1  3  1  0
  1  4  1  1
  2  5  1  0
  2  6  1  0
  2  7  1  1
  3  8  1  0
  3  9  1  6
  4 10  1  0
  5 11  1  0
  5 12  1  1
  6 13  1  0
  8 14  1  0
  9 15  1  0
 11 16  3  0
 14 17  1  0
 14 18  1  6
 17 19  2  0
 18 20  1  0
 19 21  1  0
 21 22  2  0
  5 10  1  0
  8 13  1  1
 15 17  1  0
 20 21  1  0
 23 24  2  0
 24 25  1  0
 25 26  2  0
 26 27  1  0
 27 28  2  0
 23 28  1  0
 26 29  1  0
 29 30  1  0
 31 30  1  6
 31 32  1  0
 27 32  1  0
 31 33  1  0
 33 34  1  0
 34 35  1  0
 35 36  1  0
 32 36  1  1
 33 37  1  1
 37 38  1  0
 38 39  1  0
 34 39  1  0
 24 40  1  0
 40 41  1  0
 34 42  1  1
 39 43  1  1
 39 44  1  0
 44 45  3  0
M  END
