 
     RDKit          2D

 55 58  0  0  1  0  0  0  0  0999 V2000
    6.7900  -14.9100    0.0000 C   0  0  0  0  0  0  0  0  0  0  0  0
    6.7900  -16.3100    0.0000 C   0  0  0  0  0  0  0  0  0  0  0  0
    8.0024  -17.0100    0.0000 C   0  0  0  0  0  0  0  0  0  0  0  0
    9.2149  -16.3100    0.0000 C   0  0  0  0  0  0  0  0  0  0  0  0
    9.2149  -14.9100    0.0000 C   0  0  0  0  0  0  0  0  0  0  0  0
    8.0024  -14.2100    0.0000 C   0  0  0  0  0  0  0  0  0  0  0  0
   10.4273  -17.0100    0.0000 C   0  0  0  0  0  0  0  0  0  0  0  0
   11.6397  -16.3100    0.0000 C   0  0  0  0  0  0  0  0  0  0  0  0
   11.6397  -14.9100    0.0000 C   0  0  0  0  0  0  0  0  0  0  0  0
   10.4273  -14.2100    0.0000 C   0  0  0  0  0  0  0  0  0  0  0  0
   12.8522  -14.2100    0.0000 C   0  0  0  0  0  0  0  0  0  0  0  0
   12.8522  -12.8100    0.0000 C   0  0  0  0  0  0  0  0  0  0  0  0
   11.6397  -12.1100    0.0000 C   0  0  0  0  0  0  0  0  0  0  0  0
   10.4273  -12.8100    0.0000 C   0  0  0  0  0  0  0  0  0  0  0  0
   15.2770  -14.2100    0.0000 C   0  0  0  0  0  0  0  0  0  0  0  0
   15.2770  -12.8100    0.0000 C   0  0  0  0  0  0  0  0  0  0  0  0
   14.0646  -12.1100    0.0000 C   0  0  0  0  0  0  0  0  0  0  0  0
    9.2149  -13.5100    0.0000 C   0  0  0  0  0  0  0  0  0  0  0  0
    9.2169  -12.1112    0.0000 O   0  0  0  0  0  0  0  0  0  0  0  0
   12.8522  -11.4100    0.0000 C   0  0  0  0  0  0  0  0  0  0  0  0
   16.4766  -12.1173    0.0000 C   0  0  0  0  0  0  0  0  0  0  0  0
   14.0646  -10.3600    0.0000 C   0  0  0  0  0  0  0  0  0  0  0  0
   10.4273  -15.6100    0.0000 F   0  0  0  0  0  0  0  0  0  0  0  0
   15.2770  -11.4100    0.0000 O   0  0  0  0  0  0  0  0  0  0  0  0
    5.5776  -17.0100    0.0000 O   0  0  0  0  0  0  0  0  0  0  0  0
   15.2811   -9.6577    0.0000 O   0  0  0  0  0  0  0  0  0  0  0  0
   12.8562   -9.6623    0.0000 C   0  0  0  0  0  0  0  0  0  0  0  0
   11.6627  -10.3516    0.0000 O   0  0  0  0  0  0  0  0  0  0  0  0
   20.6148  -17.3864    0.0000 C   0  0  0  0  0  0  0  0  0  0  0  0
   20.6148  -18.7909    0.0000 C   0  0  0  0  0  0  0  0  0  0  0  0
   21.8313  -19.4932    0.0000 C   0  0  0  0  0  0  0  0  0  0  0  0
   23.0477  -18.7909    0.0000 C   0  0  0  0  0  0  0  0  0  0  0  0
   23.0477  -17.3864    0.0000 C   0  0  0  0  0  0  0  0  0  0  0  0
   21.8313  -16.6840    0.0000 C   0  0  0  0  0  0  0  0  0  0  0  0
   25.4806  -18.7909    0.0000 C   0  0  0  0  0  0  0  0  0  0  0  0
   25.4806  -17.3864    0.0000 C   0  0  0  0  0  0  0  0  0  0  0  0
   24.2641  -16.6840    0.0000 C   0  0  0  0  0  0  0  0  0  0  0  0
   26.6971  -19.4932    0.0000 C   0  0  0  0  0  0  0  0  0  0  0  0
   27.9134  -18.7909    0.0000 C   0  0  0  0  0  0  0  0  0  0  0  0
   27.9134  -17.3864    0.0000 C   0  0  0  0  0  0  0  0  0  0  0  0
   26.6971  -16.6840    0.0000 N   0  0  0  0  0  0  0  0  0  0  0  0
   19.3984  -19.4932    0.0000 Cl  0  0  0  0  0  0  0  0  0  0  0  0
   24.2641  -15.2794    0.0000 C   0  0  0  0  0  0  0  0  0  0  0  0
   25.4827  -14.5758    0.0000 C   0  0  0  0  0  0  0  0  0  0  0  0
   25.4827  -13.1727    0.0000 N   0  0  0  0  0  0  0  0  0  0  0  0
   26.6827  -12.4797    0.0000 C   0  0  0  0  0  0  0  0  0  0  0  0
   24.2497  -12.4607    0.0000 C   0  0  0  0  0  0  0  0  0  0  0  0
   33.4389  -15.9340    0.0000 C   0  0  0  0  0  0  0  0  0  0  0  0
   32.7702  -14.7804    0.0000 C   0  0  0  0  0  0  0  0  0  0  0  0
   32.8450  -17.1623    0.0000 O   0  0  0  0  0  0  0  0  0  0  0  0
   34.7766  -15.9277    0.0000 O   0  0  0  0  0  0  0  0  0  0  0  0
   31.1688  -14.7865    0.0000 C   0  0  0  0  0  0  0  0  0  0  0  0
   30.5061  -15.9461    0.0000 C   0  0  0  0  0  0  0  0  0  0  0  0
   29.1684  -15.9461    0.0000 O   0  0  0  0  0  0  0  0  0  0  0  0
   31.1811  -17.1684    0.0000 O   0  0  0  0  0  0  0  0  0  0  0  0
  1  2  1  0
  2  3  1  0
  3  4  2  0
  4  5  1  0
  5  6  1  0
  1  6  2  0
  4  7  1  0
  7  8  1  0
  9  8  1  6
  9 10  1  0
  5 10  1  0
  9 11  1  0
 11 12  1  0
 12 13  1  0
 13 14  1  0
 10 14  1  0
 11 15  1  1
 15 16  1  0
 16 17  1  0
 12 17  1  0
  5 18  1  1
 14 19  1  1
 12 20  1  1
 16 21  1  1
 17 22  1  0
 10 23  1  6
 17 24  1  6
  2 25  2  0
 22 26  2  0
 22 27  1  0
 27 28  1  0
 29 30  2  0
 30 31  1  0
 31 32  2  0
 32 33  1  0
 33 34  2  0
 29 34  1  0
 35 36  2  0
 36 37  1  0
 33 37  1  0
 35 38  1  0
 38 39  2  0
 39 40  1  0
 40 41  2  0
 36 41  1  0
 30 42  1  0
 37 43  1  6
 43 44  1  0
 44 45  1  0
 45 46  1  0
 45 47  1  0
 48 49  1  0
 48 50  1  0
 48 51  2  0
 49 52  2  0
 52 53  1  0
 53 54  1  0
 53 55  2  0
M  END
