 
     RDKit          2D

 51 57  0  0  1  0  0  0  0  0999 V2000
   34.0635  -15.4455    0.0000 C   0  0  0  0  0  0  0  0  0  0  0  0
   32.8751  -16.1154    0.0000 C   0  0  0  0  0  0  0  0  0  0  0  0
   35.2406  -16.1271    0.0000 C   0  0  0  0  0  0  0  0  0  0  0  0
   35.2406  -14.7520    0.0000 O   0  0  0  0  0  0  0  0  0  0  0  0
   34.1921  -14.0704    0.0000 C   0  0  0  0  0  0  0  0  0  0  0  0
   32.9334  -17.4848    0.0000 C   0  0  0  0  0  0  0  0  0  0  0  0
   31.7039  -15.4279    0.0000 C   0  0  0  0  0  0  0  0  0  0  0  0
   35.2290  -17.4964    0.0000 C   0  0  0  0  0  0  0  0  0  0  0  0
   36.4293  -15.4338    0.0000 C   0  0  0  0  0  0  0  0  0  0  0  0
   32.9918  -13.3769    0.0000 C   0  0  0  0  0  0  0  0  0  0  0  0
   35.3749  -13.3712    0.0000 O   0  0  0  0  0  0  0  0  0  0  0  0
   31.6806  -18.1664    0.0000 C   0  0  0  0  0  0  0  0  0  0  0  0
   30.5094  -16.0980    0.0000 C   0  0  0  0  0  0  0  0  0  0  0  0
   37.6120  -14.7463    0.0000 C   0  0  0  0  0  0  0  0  0  0  0  0
   36.4235  -16.8089    0.0000 O   0  0  0  0  0  0  0  0  0  0  0  0
   30.4978  -17.4672    0.0000 C   0  0  0  0  0  0  0  0  0  0  0  0
   31.6806  -19.5357    0.0000 C   0  0  0  0  0  0  0  0  0  0  0  0
   29.3091  -18.1490    0.0000 C   0  0  0  0  0  0  0  0  0  0  0  0
   30.4861  -20.2174    0.0000 C   0  0  0  0  0  0  0  0  0  0  0  0
   29.3034  -19.5241    0.0000 C   0  0  0  0  0  0  0  0  0  0  0  0
   28.1265  -17.4615    0.0000 C   0  0  0  0  0  0  0  0  0  0  0  0
   29.2977  -16.7797    0.0000 C   0  0  0  0  0  0  0  0  0  0  0  0
   30.5445  -21.5867    0.0000 Cl  0  0  0  0  0  0  0  0  0  0  0  0
   28.1265  -20.2174    0.0000 C   0  0  0  0  0  0  0  0  0  0  0  0
   26.9320  -18.1490    0.0000 C   0  0  0  0  0  0  0  0  0  0  0  0
   26.9320  -19.5241    0.0000 C   0  0  0  0  0  0  0  0  0  0  0  0
   25.7433  -20.2057    0.0000 O   0  0  0  0  0  0  0  0  0  0  0  0
   32.8751  -14.7154    0.0000 C   0  0  0  0  0  0  0  0  0  0  0  0
   28.4200  -18.3400    0.0000 C   0  0  0  0  0  0  0  0  0  0  0  0
   28.4200  -19.7400    0.0000 C   0  0  0  0  0  0  0  0  0  0  0  0
   29.6100  -20.4400    0.0000 C   0  0  0  0  0  0  0  0  0  0  0  0
   30.8700  -19.7400    0.0000 C   0  0  0  0  0  0  0  0  0  0  0  0
   30.8700  -18.3400    0.0000 C   0  0  0  0  0  0  0  0  0  0  0  0
   29.6100  -17.6400    0.0000 C   0  0  0  0  0  0  0  0  0  0  0  0
   32.0600  -20.4400    0.0000 C   0  0  0  0  0  0  0  0  0  0  0  0
   33.2500  -19.7400    0.0000 C   0  0  0  0  0  0  0  0  0  0  0  0
   33.2500  -18.3400    0.0000 C   0  0  0  0  0  0  0  0  0  0  0  0
   32.0600  -17.6400    0.0000 C   0  0  0  0  0  0  0  0  0  0  0  0
   34.5100  -17.6400    0.0000 C   0  0  0  0  0  0  0  0  0  0  0  0
   34.5100  -16.2400    0.0000 C   0  0  0  0  0  0  0  0  0  0  0  0
   33.2500  -15.5400    0.0000 C   0  0  0  0  0  0  0  0  0  0  0  0
   32.0600  -16.2400    0.0000 C   0  0  0  0  0  0  0  0  0  0  0  0
   36.8900  -17.6400    0.0000 C   0  0  0  0  0  0  0  0  0  0  0  0
   36.8900  -16.2400    0.0000 C   0  0  0  0  0  0  0  0  0  0  0  0
   35.7000  -15.5400    0.0000 C   0  0  0  0  0  0  0  0  0  0  0  0
   27.2300  -20.4400    0.0000 O   0  0  0  0  0  0  0  0  0  0  0  0
   26.0400  -19.7400    0.0000 C   0  0  0  0  0  0  0  0  0  0  0  0
   34.5100  -14.8400    0.0000 C   0  0  0  0  0  0  0  0  0  0  0  0
   35.7000  -13.8600    0.0000 O   0  0  0  0  0  0  0  0  0  0  0  0
   36.8900  -14.8400    0.0000 C   0  0  0  0  0  0  0  0  0  0  0  0
   38.1500  -14.1400    0.0000 C   0  0  0  0  0  0  0  0  0  0  0  0
  1  2  1  0
  1  3  1  0
  1  4  1  6
  1  5  1  0
  2  6  1  0
  2  7  1  0
  3  8  1  0
  4  9  1  0
  5 10  1  0
  5 11  2  0
  6 12  1  0
  7 13  1  0
  9 14  1  0
  9 15  2  0
 12 16  1  0
 12 17  1  6
 16 18  1  0
 17 19  2  0
 18 20  1  0
 18 21  1  0
 18 22  1  1
 19 23  1  0
 20 24  2  0
 21 25  1  0
 24 26  1  0
 26 27  2  0
  6  8  1  1
 16 13  1  1
 19 20  1  0
 25 26  1  0
  2 28  1  1
 29 30  2  0
 30 31  1  0
 31 32  2  0
 32 33  1  0
 33 34  2  0
 29 34  1  0
 32 35  1  0
 35 36  1  0
 37 36  1  6
 37 38  1  0
 33 38  1  0
 37 39  1  0
 39 40  1  0
 40 41  1  0
 41 42  1  0
 38 42  1  1
 39 43  1  1
 43 44  1  0
 44 45  1  0
 40 45  1  0
 30 46  1  0
 46 47  1  0
 40 48  1  1
 45 49  1  1
 45 50  1  0
 50 51  3  0
M  END
