 
     RDKit          2D

 32 36  0  0  1  0  0  0  0  0999 V2000
   23.4500  -18.5500    0.0000 C   0  0  0  0  0  0  0  0  0  0  0  0
   23.4500  -17.2200    0.0000 C   0  0  0  0  0  0  0  0  0  0  0  0
   24.6400  -19.2500    0.0000 C   0  0  0  0  0  0  0  0  0  0  0  0
   22.3300  -19.1800    0.0000 C   0  0  0  0  0  0  0  0  0  0  0  0
   24.6400  -17.9200    0.0000 C   0  0  0  0  0  0  0  0  0  0  0  0
   22.3300  -16.5900    0.0000 C   0  0  0  0  0  0  0  0  0  0  0  0
   24.6400  -16.5900    0.0000 C   0  0  0  0  0  0  0  0  0  0  0  0
   25.7600  -18.5500    0.0000 C   0  0  0  0  0  0  0  0  0  0  0  0
   24.6400  -20.5100    0.0000 C   0  0  0  0  0  0  0  0  0  0  0  0
   21.0700  -17.8500    0.0000 O   0  0  0  0  0  0  0  0  0  0  0  0
   22.3300  -20.5100    0.0000 C   0  0  0  0  0  0  0  0  0  0  0  0
   26.8800  -17.9200    0.0000 C   0  0  0  0  0  0  0  0  0  0  0  0
   22.3300  -15.2600    0.0000 C   0  0  0  0  0  0  0  0  0  0  0  0
   25.7600  -17.2900    0.0000 C   0  0  0  0  0  0  0  0  0  0  0  0
   24.6400  -15.2600    0.0000 C   0  0  0  0  0  0  0  0  0  0  0  0
   26.8800  -19.2500    0.0000 N   0  0  0  0  0  0  0  0  0  0  0  0
   23.4500  -21.2100    0.0000 C   0  0  0  0  0  0  0  0  0  0  0  0
   21.2800  -21.2100    0.0000 O   0  0  0  0  0  0  0  0  0  0  0  0
   23.5200  -14.6300    0.0000 C   0  0  0  0  0  0  0  0  0  0  0  0
   21.2800  -14.6300    0.0000 O   0  0  0  0  0  0  0  0  0  0  0  0
   20.0900  -15.2600    0.0000 C   0  0  0  0  0  0  0  0  0  0  0  0
   28.2800  -19.2500    0.0000 C   0  0  0  0  0  0  0  0  0  0  0  0
   -1.0717   -0.2062    0.0000 C   0  0  0  0  0  0  0  0  0  0  0  0
   -1.0717   -1.0313    0.0000 C   0  0  0  0  0  0  0  0  0  0  0  0
   -0.3572   -1.4438    0.0000 C   0  0  0  0  0  0  0  0  0  0  0  0
    0.3572   -1.0313    0.0000 C   0  0  0  0  0  0  0  0  0  0  0  0
    0.3572   -0.2062    0.0000 C   0  0  0  0  0  0  0  0  0  0  0  0
   -0.3572    0.2062    0.0000 C   0  0  0  0  0  0  0  0  0  0  0  0
   -0.3572    1.0313    0.0000 C   0  0  0  0  0  0  0  0  0  0  0  0
   -1.0717    1.4438    0.0000 *   0  0  0  0  0  0  0  0  0  0  0  0
    0.3572    1.4438    0.0000 C   0  0  0  0  0  0  0  0  0  0  0  0
    1.0717    1.0313    0.0000 *   0  0  0  0  0  0  0  0  0  0  0  0
  1  2  1  0
  1  3  1  0
  1  4  1  0
  1  5  1  1
  2  6  2  0
  2  7  1  0
  3  8  1  0
  3  9  1  6
  4 10  1  6
  4 11  1  0
  5 12  1  0
  6 13  1  0
  7 14  1  0
  7 15  2  0
  8 16  1  0
  9 17  1  0
 11 18  2  0
 13 19  2  0
 13 20  1  0
 20 21  1  0
  6 10  1  0
  8 14  1  1
 11 17  1  0
 12 16  1  0
 15 19  1  0
 16 22  1  0
 23 24  2  0
 24 25  1  0
 25 26  2  0
 26 27  1  0
 27 28  2  0
 28 23  1  0
 28 29  1  0
 29 30  1  0
 29 31  1  0
 31 32  1  0
V   30 *
V   32 *
M  END
