 
     RDKit          2D

 85 97  0  0  1  0  0  0  0  0999 V2000
   18.6023  -16.9388    0.0000 C   0  0  0  0  0  0  0  0  0  0  0  0
   19.7754  -17.6171    0.0000 C   0  0  0  0  0  0  0  0  0  0  0  0
   17.4413  -17.6231    0.0000 C   0  0  0  0  0  0  0  0  0  0  0  0
   18.5900  -15.5825    0.0000 C   0  0  0  0  0  0  0  0  0  0  0  0
   20.9545  -16.9266    0.0000 C   0  0  0  0  0  0  0  0  0  0  0  0
   19.7876  -18.9735    0.0000 C   0  0  0  0  0  0  0  0  0  0  0  0
   17.4413  -18.9672    0.0000 C   0  0  0  0  0  0  0  0  0  0  0  0
   16.2744  -16.9632    0.0000 C   0  0  0  0  0  0  0  0  0  0  0  0
   19.7692  -14.8920    0.0000 C   0  0  0  0  0  0  0  0  0  0  0  0
   20.9608  -15.5703    0.0000 C   0  0  0  0  0  0  0  0  0  0  0  0
   23.3128  -16.9388    0.0000 C   0  0  0  0  0  0  0  0  0  0  0  0
   18.6144  -19.6456    0.0000 C   0  0  0  0  0  0  0  0  0  0  0  0
   16.2744  -19.6456    0.0000 C   0  0  0  0  0  0  0  0  0  0  0  0
   15.1196  -17.6231    0.0000 C   0  0  0  0  0  0  0  0  0  0  0  0
   22.1399  -14.8860    0.0000 C   0  0  0  0  0  0  0  0  0  0  0  0
   23.3190  -15.5763    0.0000 C   0  0  0  0  0  0  0  0  0  0  0  0
   15.1196  -18.9672    0.0000 C   0  0  0  0  0  0  0  0  0  0  0  0
   22.1399  -13.5174    0.0000 C   0  0  0  0  0  0  0  0  0  0  0  0
   13.9710  -19.6272    0.0000 O   0  0  0  0  0  0  0  0  0  0  0  0
   20.9913  -12.7105    0.0000 C   0  0  0  0  0  0  0  0  0  0  0  0
   23.2947  -12.7105    0.0000 O   0  0  0  0  0  0  0  0  0  0  0  0
   17.4413  -16.2205    0.0000 C   0  0  0  0  0  0  0  0  0  0  0  0
   20.9608  -14.1678    0.0000 C   0  0  0  0  0  0  0  0  0  0  0  0
    6.8600  -12.0400    0.0000 C   0  0  0  0  0  0  0  0  0  0  0  0
    6.8600  -13.4400    0.0000 C   0  0  0  0  0  0  0  0  0  0  0  0
    8.0724  -14.1400    0.0000 C   0  0  0  0  0  0  0  0  0  0  0  0
    9.2849  -13.4400    0.0000 C   0  0  0  0  0  0  0  0  0  0  0  0
    9.2849  -12.0400    0.0000 C   0  0  0  0  0  0  0  0  0  0  0  0
    8.0724  -11.3400    0.0000 C   0  0  0  0  0  0  0  0  0  0  0  0
   10.4973  -14.1400    0.0000 C   0  0  0  0  0  0  0  0  0  0  0  0
   11.7097  -13.4400    0.0000 C   0  0  0  0  0  0  0  0  0  0  0  0
   11.7097  -12.0400    0.0000 C   0  0  0  0  0  0  0  0  0  0  0  0
   10.4973  -11.3400    0.0000 C   0  0  0  0  0  0  0  0  0  0  0  0
   12.9222  -11.3400    0.0000 C   0  0  0  0  0  0  0  0  0  0  0  0
   12.9222   -9.9400    0.0000 C   0  0  0  0  0  0  0  0  0  0  0  0
   11.7097   -9.2400    0.0000 C   0  0  0  0  0  0  0  0  0  0  0  0
   10.4973   -9.9400    0.0000 C   0  0  0  0  0  0  0  0  0  0  0  0
   15.3470  -11.3400    0.0000 C   0  0  0  0  0  0  0  0  0  0  0  0
   15.3470   -9.9400    0.0000 C   0  0  0  0  0  0  0  0  0  0  0  0
   14.1346   -9.2400    0.0000 C   0  0  0  0  0  0  0  0  0  0  0  0
    5.6476  -14.1400    0.0000 O   0  0  0  0  0  0  0  0  0  0  0  0
   14.1346   -7.8400    0.0000 O   0  0  0  0  0  0  0  0  0  0  0  0
    9.2849  -10.6400    0.0000 C   0  0  0  0  0  0  0  0  0  0  0  0
   12.9222   -8.5400    0.0000 C   0  0  0  0  0  0  0  0  0  0  0  0
   28.5514  -18.0276    0.0000 C   0  0  0  0  0  0  0  0  0  0  0  0
   28.5514  -19.4309    0.0000 C   0  0  0  0  0  0  0  0  0  0  0  0
   29.7441  -20.1325    0.0000 C   0  0  0  0  0  0  0  0  0  0  0  0
   31.0070  -19.4309    0.0000 C   0  0  0  0  0  0  0  0  0  0  0  0
   31.0070  -18.0276    0.0000 C   0  0  0  0  0  0  0  0  0  0  0  0
   29.7441  -17.3260    0.0000 C   0  0  0  0  0  0  0  0  0  0  0  0
   32.1998  -20.1325    0.0000 C   0  0  0  0  0  0  0  0  0  0  0  0
   33.3925  -19.4309    0.0000 C   0  0  0  0  0  0  0  0  0  0  0  0
   33.3925  -18.0276    0.0000 C   0  0  0  0  0  0  0  0  0  0  0  0
   32.1998  -17.3260    0.0000 C   0  0  0  0  0  0  0  0  0  0  0  0
   34.6554  -17.3260    0.0000 C   0  0  0  0  0  0  0  0  0  0  0  0
   34.6554  -15.9228    0.0000 C   0  0  0  0  0  0  0  0  0  0  0  0
   33.3925  -15.2212    0.0000 C   0  0  0  0  0  0  0  0  0  0  0  0
   32.1998  -15.9228    0.0000 C   0  0  0  0  0  0  0  0  0  0  0  0
   27.3586  -20.1325    0.0000 O   0  0  0  0  0  0  0  0  0  0  0  0
   34.6554  -14.5195    0.0000 C   0  0  0  0  0  0  0  0  0  0  0  0
   31.0070  -16.6244    0.0000 C   0  0  0  0  0  0  0  0  0  0  0  0
   37.0803  -17.3260    0.0000 C   0  0  0  0  0  0  0  0  0  0  0  0
   37.0803  -15.9228    0.0000 C   0  0  0  0  0  0  0  0  0  0  0  0
   35.8678  -15.2228    0.0000 C   0  0  0  0  0  0  0  0  0  0  0  0
   35.8678  -13.8228    0.0000 O   0  0  0  0  0  0  0  0  0  0  0  0
   24.1346  -17.3254    0.0000 C   0  0  0  0  0  0  0  0  0  0  0  0
   22.9531  -18.0207    0.0000 C   0  0  0  0  0  0  0  0  0  0  0  0
   24.1407  -15.9531    0.0000 C   0  0  0  0  0  0  0  0  0  0  0  0
   26.5099  -17.3377    0.0000 C   0  0  0  0  0  0  0  0  0  0  0  0
   21.7655  -17.3377    0.0000 C   0  0  0  0  0  0  0  0  0  0  0  0
   22.9284  -19.3746    0.0000 C   0  0  0  0  0  0  0  0  0  0  0  0
   22.9408  -15.2762    0.0000 C   0  0  0  0  0  0  0  0  0  0  0  0
   25.3346  -15.2702    0.0000 C   0  0  0  0  0  0  0  0  0  0  0  0
   24.0484  -14.4948    0.0000 C   0  0  0  0  0  0  0  0  0  0  0  0
   26.5159  -15.9654    0.0000 C   0  0  0  0  0  0  0  0  0  0  0  0
   20.5962  -18.0269    0.0000 C   0  0  0  0  0  0  0  0  0  0  0  0
   21.7531  -15.9717    0.0000 C   0  0  0  0  0  0  0  0  0  0  0  0
   21.7778  -20.0576    0.0000 C   0  0  0  0  0  0  0  0  0  0  0  0
   25.3346  -13.9285    0.0000 O   0  0  0  0  0  0  0  0  0  0  0  0
   20.5962  -19.3807    0.0000 C   0  0  0  0  0  0  0  0  0  0  0  0
   19.4209  -17.3561    0.0000 C   0  0  0  0  0  0  0  0  0  0  0  0
   19.4209  -20.0638    0.0000 C   0  0  0  0  0  0  0  0  0  0  0  0
   18.2640  -18.0269    0.0000 C   0  0  0  0  0  0  0  0  0  0  0  0
   18.2640  -19.3807    0.0000 C   0  0  0  0  0  0  0  0  0  0  0  0
   17.1010  -20.0453    0.0000 O   0  0  0  0  0  0  0  0  0  0  0  0
  1  2  1  0
  1  3  1  0
  1  4  1  1
  2  5  1  0
  2  6  1  6
  3  7  1  0
  3  8  1  0
  4  9  1  0
  5 10  1  0
  5 11  1  1
  6 12  1  0
  7 13  1  0
  8 14  1  0
 10 15  1  0
 11 16  1  0
 13 17  1  0
 15 18  1  1
 17 19  1  1
 18 20  1  0
 18 21  2  0
  7 12  2  0
  9 10  1  0
 14 17  1  0
 15 16  1  0
  3 22  1  1
 10 23  1  1
 24 25  1  0
 25 26  1  0
 26 27  2  0
 27 28  1  0
 28 29  1  0
 24 29  1  0
 27 30  1  0
 30 31  1  0
 32 31  1  6
 32 33  1  0
 28 33  1  0
 32 34  1  0
 34 35  1  0
 35 36  1  0
 36 37  1  0
 33 37  1  1
 34 38  1  1
 38 39  1  0
 39 40  1  0
 35 40  1  0
 25 41  2  0
 40 42  2  0
 28 43  1  1
 35 44  1  1
 45 46  1  0
 46 47  1  0
 47 48  2  0
 48 49  1  0
 49 50  1  0
 45 50  1  0
 48 51  1  0
 51 52  1  0
 53 52  1  6
 53 54  1  0
 49 54  1  0
 53 55  1  0
 55 56  1  0
 56 57  1  0
 57 58  1  0
 54 58  1  1
 46 59  2  0
 56 60  1  1
 49 61  1  1
 55 62  1  1
 62 63  1  0
 63 64  1  0
 56 64  1  0
 64 65  1  1
 66 67  1  0
 66 68  1  0
 66 69  1  1
 67 70  1  0
 67 71  1  6
 68 72  1  0
 68 73  1  0
 68 74  1  1
 69 75  1  0
 70 76  1  0
 70 77  1  1
 71 78  1  0
 73 79  2  0
 76 80  2  0
 76 81  1  0
 80 82  1  0
 81 83  2  0
 82 84  2  0
 84 85  1  0
 72 77  1  0
 73 75  1  0
 78 80  1  0
 83 84  1  0
M  END
