 
 
 
 12 11  0  0  0  0  0  0  0  0999 V2000
   14.5659  -15.2671    0.0000 C   0  0  0  0  0  0  0  0  0  0  0  0
   14.5659  -16.6677    0.0000 C   0  0  0  0  0  0  0  0  0  0  0  0
   15.7788  -17.3680    0.0000 C   0  0  0  0  0  0  0  0  0  0  0  0
   16.9918  -16.6677    0.0000 C   0  0  0  0  0  0  0  0  0  0  0  0
   16.9918  -15.2671    0.0000 C   0  0  0  0  0  0  0  0  0  0  0  0
   15.7788  -14.5668    0.0000 C   0  0  0  0  0  0  0  0  0  0  0  0
   13.3529  -17.3680    0.0000 O   0  0  0  0  0  0  0  0  0  0  0  0
   18.2234  -14.5558    0.0000 C   0  0  0  0  0  0  0  0  0  0  0  0
   19.4291  -15.2518    0.0000 C   0  0  0  0  0  0  0  0  0  0  0  0
   20.6119  -14.5687    0.0000 N   0  0  0  0  0  0  0  0  0  0  0  0
   19.4295  -16.6673    0.0000 C   0  0  0  0  0  0  0  0  0  0  0  0
   23.9498  -16.7378    0.0000 Br  0  0  0  0  0  0  0  0  0  0  0  0
  1  2  2  0     0  0
  2  3  1  0     0  0
  3  4  2  0     0  0
  4  5  1  0     0  0
  5  6  2  0     0  0
  1  6  1  0     0  0
  2  7  1  0     0  0
  5  8  1  0     0  0
  8  9  1  0     0  0
  9 10  1  0     0  0
  9 11  1  0     0  0
M  END
