 
     RDKit          2D

 44 50  0  0  1  0  0  0  0  0999 V2000
   28.4200  -18.3400    0.0000 C   0  0  0  0  0  0  0  0  0  0  0  0
   28.4200  -19.7400    0.0000 C   0  0  0  0  0  0  0  0  0  0  0  0
   29.6100  -20.4400    0.0000 C   0  0  0  0  0  0  0  0  0  0  0  0
   30.8700  -19.7400    0.0000 C   0  0  0  0  0  0  0  0  0  0  0  0
   30.8700  -18.3400    0.0000 C   0  0  0  0  0  0  0  0  0  0  0  0
   29.6100  -17.6400    0.0000 C   0  0  0  0  0  0  0  0  0  0  0  0
   32.0600  -20.4400    0.0000 C   0  0  0  0  0  0  0  0  0  0  0  0
   33.2500  -19.7400    0.0000 C   0  0  0  0  0  0  0  0  0  0  0  0
   33.2500  -18.3400    0.0000 C   0  0  0  0  0  0  0  0  0  0  0  0
   32.0600  -17.6400    0.0000 C   0  0  0  0  0  0  0  0  0  0  0  0
   34.5100  -17.6400    0.0000 C   0  0  0  0  0  0  0  0  0  0  0  0
   34.5100  -16.2400    0.0000 C   0  0  0  0  0  0  0  0  0  0  0  0
   33.2500  -15.5400    0.0000 C   0  0  0  0  0  0  0  0  0  0  0  0
   32.0600  -16.2400    0.0000 C   0  0  0  0  0  0  0  0  0  0  0  0
   36.8900  -17.6400    0.0000 C   0  0  0  0  0  0  0  0  0  0  0  0
   36.8900  -16.2400    0.0000 C   0  0  0  0  0  0  0  0  0  0  0  0
   35.7000  -15.5400    0.0000 C   0  0  0  0  0  0  0  0  0  0  0  0
   27.2300  -20.4400    0.0000 O   0  0  0  0  0  0  0  0  0  0  0  0
   26.0400  -19.7400    0.0000 C   0  0  0  0  0  0  0  0  0  0  0  0
   34.5100  -14.8400    0.0000 C   0  0  0  0  0  0  0  0  0  0  0  0
   35.7000  -13.8600    0.0000 O   0  0  0  0  0  0  0  0  0  0  0  0
   36.8900  -14.8400    0.0000 C   0  0  0  0  0  0  0  0  0  0  0  0
   38.1500  -14.1400    0.0000 C   0  0  0  0  0  0  0  0  0  0  0  0
   20.9556  -20.0583    0.0000 C   0  0  0  0  0  0  0  0  0  0  0  0
   20.9556  -21.4251    0.0000 C   0  0  0  0  0  0  0  0  0  0  0  0
   22.1422  -22.1085    0.0000 C   0  0  0  0  0  0  0  0  0  0  0  0
   22.1422  -19.3749    0.0000 C   0  0  0  0  0  0  0  0  0  0  0  0
   23.3217  -20.0583    0.0000 C   0  0  0  0  0  0  0  0  0  0  0  0
   23.3159  -21.4251    0.0000 C   0  0  0  0  0  0  0  0  0  0  0  0
   24.4967  -22.1136    0.0000 C   0  0  0  0  0  0  0  0  0  0  0  0
   25.6832  -21.4352    0.0000 C   0  0  0  0  0  0  0  0  0  0  0  0
   24.5083  -19.3801    0.0000 C   0  0  0  0  0  0  0  0  0  0  0  0
   25.6832  -20.0714    0.0000 C   0  0  0  0  0  0  0  0  0  0  0  0
   25.7056  -17.3450    0.0000 C   0  0  0  0  0  0  0  0  0  0  0  0
   24.5195  -18.0169    0.0000 C   0  0  0  0  0  0  0  0  0  0  0  0
   26.8807  -18.0361    0.0000 C   0  0  0  0  0  0  0  0  0  0  0  0
   26.8641  -19.3953    0.0000 C   0  0  0  0  0  0  0  0  0  0  0  0
   29.2881  -19.4238    0.0000 C   0  0  0  0  0  0  0  0  0  0  0  0
   29.2345  -18.0648    0.0000 C   0  0  0  0  0  0  0  0  0  0  0  0
   28.0659  -17.3710    0.0000 C   0  0  0  0  0  0  0  0  0  0  0  0
   29.2461  -16.6760    0.0000 C   0  0  0  0  0  0  0  0  0  0  0  0
   28.0588  -15.7194    0.0000 O   0  0  0  0  0  0  0  0  0  0  0  0
   30.4266  -15.9856    0.0000 C   0  0  0  0  0  0  0  0  0  0  0  0
   26.8714  -16.6690    0.0000 C   0  0  0  0  0  0  0  0  0  0  0  0
  1  2  2  0
  2  3  1  0
  3  4  2  0
  4  5  1  0
  5  6  2  0
  1  6  1  0
  4  7  1  0
  7  8  1  0
  9  8  1  6
  9 10  1  0
  5 10  1  0
  9 11  1  0
 11 12  1  0
 12 13  1  0
 13 14  1  0
 10 14  1  1
 11 15  1  1
 15 16  1  0
 16 17  1  0
 12 17  1  0
  2 18  1  0
 18 19  1  0
 12 20  1  1
 17 21  1  1
 17 22  1  0
 22 23  3  0
 36 34  1  0
 34 35  1  0
 32 35  1  1
 25 26  1  0
 26 29  2  0
 28 29  1  0
 29 30  1  0
 30 31  1  0
 36 37  1  0
 38 39  1  0
 39 40  1  0
 40 36  1  0
 37 38  1  1
 33 31  1  6
 40 41  1  0
 32 28  1  0
 40 42  1  1
 28 27  1  6
 41 43  3  0
 27 24  1  0
 36 44  1  1
 24 25  1  0
 32 33  1  0
 33 37  1  0
M  END
