 
     RDKit          2D

 82 91  0  0  1  0  0  0  0  0999 V2000
   26.1130  -18.9388    0.0000 C   0  0  0  0  0  0  0  0  0  0  0  0
   24.9295  -18.2800    0.0000 C   0  0  0  0  0  0  0  0  0  0  0  0
   27.2674  -18.2683    0.0000 C   0  0  0  0  0  0  0  0  0  0  0  0
   26.1188  -20.2914    0.0000 C   0  0  0  0  0  0  0  0  0  0  0  0
   23.7693  -18.9562    0.0000 C   0  0  0  0  0  0  0  0  0  0  0  0
   24.9238  -16.9333    0.0000 C   0  0  0  0  0  0  0  0  0  0  0  0
   27.3257  -16.9274    0.0000 C   0  0  0  0  0  0  0  0  0  0  0  0
   29.6285  -18.2683    0.0000 C   0  0  0  0  0  0  0  0  0  0  0  0
   24.9469  -20.9851    0.0000 C   0  0  0  0  0  0  0  0  0  0  0  0
   23.7868  -20.3088    0.0000 C   0  0  0  0  0  0  0  0  0  0  0  0
   22.6032  -18.2916    0.0000 C   0  0  0  0  0  0  0  0  0  0  0  0
   23.7634  -17.6153    0.0000 C   0  0  0  0  0  0  0  0  0  0  0  0
   26.0897  -16.2570    0.0000 C   0  0  0  0  0  0  0  0  0  0  0  0
   28.4333  -16.2337    0.0000 C   0  0  0  0  0  0  0  0  0  0  0  0
   27.3140  -15.5165    0.0000 C   0  0  0  0  0  0  0  0  0  0  0  0
   29.6111  -16.9157    0.0000 C   0  0  0  0  0  0  0  0  0  0  0  0
   22.6149  -20.9967    0.0000 C   0  0  0  0  0  0  0  0  0  0  0  0
   21.4315  -18.9679    0.0000 C   0  0  0  0  0  0  0  0  0  0  0  0
   28.4276  -14.8228    0.0000 O   0  0  0  0  0  0  0  0  0  0  0  0
   21.4374  -20.3205    0.0000 C   0  0  0  0  0  0  0  0  0  0  0  0
   20.2306  -21.0201    0.0000 O   0  0  0  0  0  0  0  0  0  0  0  0
   29.6241  -14.1257    0.0000 C   0  0  0  0  0  0  0  0  0  0  0  0
   30.8347  -14.8183    0.0000 C   0  0  0  0  0  0  0  0  0  0  0  0
   29.6185  -12.7400    0.0000 O   0  0  0  0  0  0  0  0  0  0  0  0
   32.0091  -14.1342    0.0000 C   0  0  0  0  0  0  0  0  0  0  0  0
   33.2122  -14.8228    0.0000 C   0  0  0  0  0  0  0  0  0  0  0  0
   34.3904  -14.1365    0.0000 C   0  0  0  0  0  0  0  0  0  0  0  0
   35.5915  -14.8241    0.0000 C   0  0  0  0  0  0  0  0  0  0  0  0
   36.7709  -14.1373    0.0000 C   0  0  0  0  0  0  0  0  0  0  0  0
   23.7350  -19.3088    0.0000 C   0  0  0  0  0  0  0  0  0  0  0  0
   24.9083  -19.9976    0.0000 C   0  0  0  0  0  0  0  0  0  0  0  0
   22.5442  -19.9859    0.0000 C   0  0  0  0  0  0  0  0  0  0  0  0
   23.7466  -17.9427    0.0000 C   0  0  0  0  0  0  0  0  0  0  0  0
   26.0934  -19.3204    0.0000 C   0  0  0  0  0  0  0  0  0  0  0  0
   24.9083  -21.3696    0.0000 C   0  0  0  0  0  0  0  0  0  0  0  0
   22.5382  -21.3636    0.0000 C   0  0  0  0  0  0  0  0  0  0  0  0
   21.3591  -19.3030    0.0000 C   0  0  0  0  0  0  0  0  0  0  0  0
   22.5325  -18.6199    0.0000 C   0  0  0  0  0  0  0  0  0  0  0  0
   24.9317  -17.2715    0.0000 C   0  0  0  0  0  0  0  0  0  0  0  0
   26.1108  -17.9544    0.0000 C   0  0  0  0  0  0  0  0  0  0  0  0
   28.4634  -19.3497    0.0000 C   0  0  0  0  0  0  0  0  0  0  0  0
   23.7233  -22.0525    0.0000 C   0  0  0  0  0  0  0  0  0  0  0  0
   21.3591  -22.0467    0.0000 C   0  0  0  0  0  0  0  0  0  0  0  0
   20.1798  -19.9859    0.0000 C   0  0  0  0  0  0  0  0  0  0  0  0
   27.2958  -17.2832    0.0000 C   0  0  0  0  0  0  0  0  0  0  0  0
   26.1050  -16.5767    0.0000 C   0  0  0  0  0  0  0  0  0  0  0  0
   28.4809  -17.9778    0.0000 C   0  0  0  0  0  0  0  0  0  0  0  0
   20.1798  -21.3636    0.0000 C   0  0  0  0  0  0  0  0  0  0  0  0
   27.3075  -15.9112    0.0000 O   0  0  0  0  0  0  0  0  0  0  0  0
   18.9831  -22.0408    0.0000 O   0  0  0  0  0  0  0  0  0  0  0  0
   28.4926  -15.2283    0.0000 C   0  0  0  0  0  0  0  0  0  0  0  0
   29.6776  -15.9112    0.0000 C   0  0  0  0  0  0  0  0  0  0  0  0
   28.4809  -13.8623    0.0000 O   0  0  0  0  0  0  0  0  0  0  0  0
   30.8510  -15.2283    0.0000 C   0  0  0  0  0  0  0  0  0  0  0  0
   20.6500  -29.7500    0.0000 C   0  0  0  0  0  0  0  0  0  0  0  0
   20.6500  -31.1500    0.0000 C   0  0  0  0  0  0  0  0  0  0  0  0
   21.8400  -31.8500    0.0000 C   0  0  0  0  0  0  0  0  0  0  0  0
   23.0300  -31.1500    0.0000 C   0  0  0  0  0  0  0  0  0  0  0  0
   23.0300  -29.7500    0.0000 C   0  0  0  0  0  0  0  0  0  0  0  0
   21.8400  -28.9800    0.0000 C   0  0  0  0  0  0  0  0  0  0  0  0
   24.2900  -31.8500    0.0000 C   0  0  0  0  0  0  0  0  0  0  0  0
   25.4800  -31.1500    0.0000 C   0  0  0  0  0  0  0  0  0  0  0  0
   25.4800  -29.7500    0.0000 C   0  0  0  0  0  0  0  0  0  0  0  0
   24.2900  -28.9800    0.0000 C   0  0  0  0  0  0  0  0  0  0  0  0
   26.6700  -28.9800    0.0000 C   0  0  0  0  0  0  0  0  0  0  0  0
   26.6700  -27.5800    0.0000 C   0  0  0  0  0  0  0  0  0  0  0  0
   25.4800  -26.8800    0.0000 C   0  0  0  0  0  0  0  0  0  0  0  0
   24.2900  -27.5800    0.0000 C   0  0  0  0  0  0  0  0  0  0  0  0
   19.3900  -31.8500    0.0000 O   0  0  0  0  0  0  0  0  0  0  0  0
   26.6700  -26.1800    0.0000 C   0  0  0  0  0  0  0  0  0  0  0  0
   18.2000  -31.1500    0.0000 C   0  0  0  0  0  0  0  0  0  0  0  0
   17.0100  -31.7800    0.0000 C   0  0  0  0  0  0  0  0  0  0  0  0
   18.2000  -29.6800    0.0000 O   0  0  0  0  0  0  0  0  0  0  0  0
   15.8200  -31.1500    0.0000 C   0  0  0  0  0  0  0  0  0  0  0  0
   29.0949  -28.9800    0.0000 C   0  0  0  0  0  0  0  0  0  0  0  0
   29.0949  -27.5800    0.0000 C   0  0  0  0  0  0  0  0  0  0  0  0
   27.8824  -26.8800    0.0000 C   0  0  0  0  0  0  0  0  0  0  0  0
   27.8824  -25.4802    0.0000 O   0  0  0  0  0  0  0  0  0  0  0  0
   29.0780  -24.7898    0.0000 C   0  0  0  0  0  0  0  0  0  0  0  0
   30.2652  -25.4752    0.0000 C   0  0  0  0  0  0  0  0  0  0  0  0
   31.4566  -24.7872    0.0000 C   0  0  0  0  0  0  0  0  0  0  0  0
   29.0782  -23.3803    0.0000 O   0  0  0  0  0  0  0  0  0  0  0  0
  1  2  1  0
  1  3  1  0
  1  4  1  6
  2  5  1  0
  2  6  1  1
  3  7  1  0
  3  8  1  1
  4  9  1  0
  5 10  1  0
  5 11  1  0
  5 12  1  1
  6 13  1  0
  7 14  1  0
  7 15  1  1
  8 16  1  0
 10 17  2  0
 11 18  1  0
 14 19  1  1
 17 20  1  0
 20 21  2  0
  7 13  1  0
  9 10  1  0
 14 16  1  0
 18 20  1  0
 19 22  1  0
 22 23  1  0
 22 24  2  0
 23 25  1  0
 25 26  1  0
 26 27  1  0
 27 28  1  0
 28 29  1  0
 30 31  1  0
 30 32  1  0
 30 33  1  1
 31 34  1  0
 31 35  1  6
 32 36  1  0
 32 37  1  0
 32 38  1  1
 33 39  1  0
 34 40  1  0
 34 41  1  1
 35 42  1  0
 36 43  2  0
 37 44  1  0
 40 45  1  0
 40 46  1  1
 41 47  1  0
 43 48  1  0
 45 49  1  1
 48 50  2  0
 49 51  1  0
 51 52  1  0
 51 53  2  0
 52 54  1  0
 36 42  1  0
 39 40  1  0
 44 48  1  0
 45 47  1  0
 55 56  2  0
 56 57  1  0
 57 58  2  0
 58 59  1  0
 59 60  2  0
 55 60  1  0
 58 61  1  0
 61 62  1  0
 63 62  1  6
 63 64  1  0
 59 64  1  0
 63 65  1  0
 65 66  1  0
 66 67  1  0
 67 68  1  0
 64 68  1  1
 56 69  1  0
 66 70  1  1
 69 71  1  0
 71 72  1  0
 71 73  2  0
 72 74  1  0
 65 75  1  1
 75 76  1  0
 76 77  1  0
 66 77  1  0
 77 78  1  1
 78 79  1  0
 79 80  1  0
 80 81  1  0
 79 82  2  0
M  END
