 
     RDKit          2D

 59 66  0  0  1  0  0  0  0  0999 V2000
   16.3800  -29.1900    0.0000 C   0  0  0  0  0  0  0  0  0  0  0  0
   16.3800  -30.5900    0.0000 C   0  0  0  0  0  0  0  0  0  0  0  0
   17.5700  -31.2200    0.0000 C   0  0  0  0  0  0  0  0  0  0  0  0
   18.7600  -30.5900    0.0000 C   0  0  0  0  0  0  0  0  0  0  0  0
   18.7600  -29.1900    0.0000 C   0  0  0  0  0  0  0  0  0  0  0  0
   17.5700  -28.4900    0.0000 C   0  0  0  0  0  0  0  0  0  0  0  0
   19.9500  -31.2200    0.0000 C   0  0  0  0  0  0  0  0  0  0  0  0
   21.2100  -30.5900    0.0000 C   0  0  0  0  0  0  0  0  0  0  0  0
   21.2100  -29.1900    0.0000 C   0  0  0  0  0  0  0  0  0  0  0  0
   19.9500  -28.4900    0.0000 C   0  0  0  0  0  0  0  0  0  0  0  0
   22.4000  -28.4900    0.0000 C   0  0  0  0  0  0  0  0  0  0  0  0
   22.4000  -27.0900    0.0000 C   0  0  0  0  0  0  0  0  0  0  0  0
   21.2100  -26.3900    0.0000 C   0  0  0  0  0  0  0  0  0  0  0  0
   19.9500  -27.0900    0.0000 C   0  0  0  0  0  0  0  0  0  0  0  0
   15.1900  -31.2200    0.0000 O   0  0  0  0  0  0  0  0  0  0  0  0
   18.7600  -27.7900    0.0000 C   0  0  0  0  0  0  0  0  0  0  0  0
   22.4000  -25.6900    0.0000 C   0  0  0  0  0  0  0  0  0  0  0  0
   24.8500  -28.4900    0.0000 C   0  0  0  0  0  0  0  0  0  0  0  0
   24.8500  -27.0900    0.0000 C   0  0  0  0  0  0  0  0  0  0  0  0
   23.5900  -26.3900    0.0000 C   0  0  0  0  0  0  0  0  0  0  0  0
   23.5900  -24.9900    0.0000 C   0  0  0  0  0  0  0  0  0  0  0  0
   22.4000  -24.2900    0.0000 O   0  0  0  0  0  0  0  0  0  0  0  0
   24.7800  -24.2900    0.0000 C   0  0  0  0  0  0  0  0  0  0  0  0
   24.7800  -25.6900    0.0000 O   0  0  0  0  0  0  0  0  0  0  0  0
   25.9700  -26.3900    0.0000 C   0  0  0  0  0  0  0  0  0  0  0  0
   27.1600  -25.6900    0.0000 C   0  0  0  0  0  0  0  0  0  0  0  0
   25.9700  -27.7900    0.0000 O   0  0  0  0  0  0  0  0  0  0  0  0
   28.3500  -26.3900    0.0000 C   0  0  0  0  0  0  0  0  0  0  0  0
   29.5400  -25.6900    0.0000 C   0  0  0  0  0  0  0  0  0  0  0  0
   30.7300  -26.3900    0.0000 C   0  0  0  0  0  0  0  0  0  0  0  0
   31.9200  -25.6900    0.0000 C   0  0  0  0  0  0  0  0  0  0  0  0
   24.1622  -14.9985    0.0000 C   0  0  0  0  0  0  0  0  0  0  0  0
   24.1622  -16.3696    0.0000 C   0  0  0  0  0  0  0  0  0  0  0  0
   25.3496  -17.0552    0.0000 C   0  0  0  0  0  0  0  0  0  0  0  0
   26.5371  -16.3696    0.0000 C   0  0  0  0  0  0  0  0  0  0  0  0
   26.5371  -14.9985    0.0000 C   0  0  0  0  0  0  0  0  0  0  0  0
   25.3496  -14.3129    0.0000 C   0  0  0  0  0  0  0  0  0  0  0  0
   22.9748  -17.0552    0.0000 C   0  0  0  0  0  0  0  0  0  0  0  0
   22.9748  -18.4263    0.0000 C   0  0  0  0  0  0  0  0  0  0  0  0
   24.1622  -19.1118    0.0000 C   0  0  0  0  0  0  0  0  0  0  0  0
   25.3496  -18.4263    0.0000 C   0  0  0  0  0  0  0  0  0  0  0  0
   21.7873  -16.3696    0.0000 C   0  0  0  0  0  0  0  0  0  0  0  0
   20.5999  -17.0552    0.0000 C   0  0  0  0  0  0  0  0  0  0  0  0
   20.5999  -18.4263    0.0000 C   0  0  0  0  0  0  0  0  0  0  0  0
   21.7873  -19.1118    0.0000 C   0  0  0  0  0  0  0  0  0  0  0  0
   28.9119  -16.3696    0.0000 C   0  0  0  0  0  0  0  0  0  0  0  0
   28.9119  -14.9985    0.0000 C   0  0  0  0  0  0  0  0  0  0  0  0
   27.7245  -14.3129    0.0000 C   0  0  0  0  0  0  0  0  0  0  0  0
   19.4099  -19.1118    0.0000 O   0  0  0  0  0  0  0  0  0  0  0  0
   18.2224  -18.4263    0.0000 C   0  0  0  0  0  0  0  0  0  0  0  0
   17.0350  -19.1118    0.0000 C   0  0  0  0  0  0  0  0  0  0  0  0
   18.2224  -17.0552    0.0000 O   0  0  0  0  0  0  0  0  0  0  0  0
   15.8455  -18.4252    0.0000 C   0  0  0  0  0  0  0  0  0  0  0  0
   14.6581  -19.1108    0.0000 C   0  0  0  0  0  0  0  0  0  0  0  0
   14.6581  -20.4819    0.0000 C   0  0  0  0  0  0  0  0  0  0  0  0
   15.8476  -21.1685    0.0000 C   0  0  0  0  0  0  0  0  0  0  0  0
   17.0350  -20.4830    0.0000 C   0  0  0  0  0  0  0  0  0  0  0  0
   27.7272  -12.9418    0.0000 O   0  0  0  0  0  0  0  0  0  0  0  0
   26.5389  -13.6273    0.0000 C   0  0  0  0  0  0  0  0  0  0  0  0
  1  2  1  0
  2  3  1  0
  3  4  2  0
  4  5  1  0
  5  6  1  0
  1  6  1  0
  4  7  1  0
  7  8  1  0
  9  8  1  6
  9 10  1  0
  5 10  1  0
  9 11  1  0
 11 12  1  0
 12 13  1  0
 13 14  1  0
 10 14  1  1
  2 15  2  0
  5 16  1  1
 12 17  1  1
 11 18  1  1
 18 19  1  0
 19 20  1  0
 12 20  1  0
 20 21  1  0
 21 22  2  0
 21 23  1  0
 20 24  1  6
 24 25  1  0
 25 26  1  0
 25 27  2  0
 26 28  1  0
 28 29  1  0
 29 30  1  0
 30 31  1  0
 33 32  1  1
 33 34  1  0
 34 35  1  0
 35 36  1  0
 36 37  1  0
 32 37  1  0
 33 38  1  0
 38 39  2  0
 39 40  1  0
 40 41  1  0
 34 41  1  6
 38 42  1  0
 42 43  2  0
 43 44  1  0
 44 45  2  0
 39 45  1  0
 35 46  1  1
 46 47  1  0
 47 48  1  0
 36 48  1  0
 44 49  1  0
 49 50  1  0
 50 51  1  0
 50 52  2  0
 51 53  2  0
 53 54  1  0
 54 55  2  0
 55 56  1  0
 56 57  2  0
 51 57  1  0
 48 58  1  1
 36 59  1  1
M  END
