 
     RDKit          2D

 80 89  0  0  1  0  0  0  0  0999 V2000
   26.1130  -18.9388    0.0000 C   0  0  0  0  0  0  0  0  0  0  0  0
   24.9295  -18.2800    0.0000 C   0  0  0  0  0  0  0  0  0  0  0  0
   27.2674  -18.2683    0.0000 C   0  0  0  0  0  0  0  0  0  0  0  0
   26.1188  -20.2914    0.0000 C   0  0  0  0  0  0  0  0  0  0  0  0
   23.7693  -18.9562    0.0000 C   0  0  0  0  0  0  0  0  0  0  0  0
   24.9238  -16.9333    0.0000 C   0  0  0  0  0  0  0  0  0  0  0  0
   27.3257  -16.9274    0.0000 C   0  0  0  0  0  0  0  0  0  0  0  0
   29.6285  -18.2683    0.0000 C   0  0  0  0  0  0  0  0  0  0  0  0
   24.9469  -20.9851    0.0000 C   0  0  0  0  0  0  0  0  0  0  0  0
   23.7868  -20.3088    0.0000 C   0  0  0  0  0  0  0  0  0  0  0  0
   22.6032  -18.2916    0.0000 C   0  0  0  0  0  0  0  0  0  0  0  0
   23.7634  -17.6153    0.0000 C   0  0  0  0  0  0  0  0  0  0  0  0
   26.0897  -16.2570    0.0000 C   0  0  0  0  0  0  0  0  0  0  0  0
   28.4333  -16.2337    0.0000 C   0  0  0  0  0  0  0  0  0  0  0  0
   27.3140  -15.5165    0.0000 C   0  0  0  0  0  0  0  0  0  0  0  0
   29.6111  -16.9157    0.0000 C   0  0  0  0  0  0  0  0  0  0  0  0
   22.6149  -20.9967    0.0000 C   0  0  0  0  0  0  0  0  0  0  0  0
   21.4315  -18.9679    0.0000 C   0  0  0  0  0  0  0  0  0  0  0  0
   28.4276  -14.8228    0.0000 O   0  0  0  0  0  0  0  0  0  0  0  0
   21.4374  -20.3205    0.0000 C   0  0  0  0  0  0  0  0  0  0  0  0
   20.2306  -21.0201    0.0000 O   0  0  0  0  0  0  0  0  0  0  0  0
   29.6241  -14.1257    0.0000 C   0  0  0  0  0  0  0  0  0  0  0  0
   30.8347  -14.8183    0.0000 C   0  0  0  0  0  0  0  0  0  0  0  0
   29.6185  -12.7400    0.0000 O   0  0  0  0  0  0  0  0  0  0  0  0
   32.0091  -14.1342    0.0000 C   0  0  0  0  0  0  0  0  0  0  0  0
   33.2122  -14.8228    0.0000 C   0  0  0  0  0  0  0  0  0  0  0  0
   34.3904  -14.1365    0.0000 C   0  0  0  0  0  0  0  0  0  0  0  0
   35.5915  -14.8241    0.0000 C   0  0  0  0  0  0  0  0  0  0  0  0
   36.7709  -14.1373    0.0000 C   0  0  0  0  0  0  0  0  0  0  0  0
   23.7350  -19.3088    0.0000 C   0  0  0  0  0  0  0  0  0  0  0  0
   24.9083  -19.9976    0.0000 C   0  0  0  0  0  0  0  0  0  0  0  0
   22.5442  -19.9859    0.0000 C   0  0  0  0  0  0  0  0  0  0  0  0
   23.7466  -17.9427    0.0000 C   0  0  0  0  0  0  0  0  0  0  0  0
   26.0934  -19.3204    0.0000 C   0  0  0  0  0  0  0  0  0  0  0  0
   24.9083  -21.3696    0.0000 C   0  0  0  0  0  0  0  0  0  0  0  0
   22.5382  -21.3636    0.0000 C   0  0  0  0  0  0  0  0  0  0  0  0
   21.3591  -19.3030    0.0000 C   0  0  0  0  0  0  0  0  0  0  0  0
   22.5325  -18.6199    0.0000 C   0  0  0  0  0  0  0  0  0  0  0  0
   24.9317  -17.2715    0.0000 C   0  0  0  0  0  0  0  0  0  0  0  0
   26.1108  -17.9544    0.0000 C   0  0  0  0  0  0  0  0  0  0  0  0
   28.4634  -19.3497    0.0000 C   0  0  0  0  0  0  0  0  0  0  0  0
   23.7233  -22.0525    0.0000 C   0  0  0  0  0  0  0  0  0  0  0  0
   21.3591  -22.0467    0.0000 C   0  0  0  0  0  0  0  0  0  0  0  0
   20.1798  -19.9859    0.0000 C   0  0  0  0  0  0  0  0  0  0  0  0
   27.2958  -17.2832    0.0000 C   0  0  0  0  0  0  0  0  0  0  0  0
   26.1050  -16.5767    0.0000 C   0  0  0  0  0  0  0  0  0  0  0  0
   28.4809  -17.9778    0.0000 C   0  0  0  0  0  0  0  0  0  0  0  0
   20.1798  -21.3636    0.0000 C   0  0  0  0  0  0  0  0  0  0  0  0
   27.3075  -15.9112    0.0000 O   0  0  0  0  0  0  0  0  0  0  0  0
   18.9831  -22.0408    0.0000 O   0  0  0  0  0  0  0  0  0  0  0  0
   28.4926  -15.2283    0.0000 C   0  0  0  0  0  0  0  0  0  0  0  0
   29.6776  -15.9112    0.0000 C   0  0  0  0  0  0  0  0  0  0  0  0
   28.4809  -13.8623    0.0000 O   0  0  0  0  0  0  0  0  0  0  0  0
   30.8510  -15.2283    0.0000 C   0  0  0  0  0  0  0  0  0  0  0  0
   21.7770  -18.3828    0.0000 C   0  0  0  0  0  0  0  0  0  0  0  0
   20.5804  -19.0567    0.0000 C   0  0  0  0  0  0  0  0  0  0  0  0
   21.7886  -17.0060    0.0000 C   0  0  0  0  0  0  0  0  0  0  0  0
   24.1646  -18.4002    0.0000 C   0  0  0  0  0  0  0  0  0  0  0  0
   19.3954  -18.3596    0.0000 C   0  0  0  0  0  0  0  0  0  0  0  0
   20.5804  -20.4276    0.0000 C   0  0  0  0  0  0  0  0  0  0  0  0
   22.9854  -16.3321    0.0000 C   0  0  0  0  0  0  0  0  0  0  0  0
   20.6036  -16.3148    0.0000 C   0  0  0  0  0  0  0  0  0  0  0  0
   21.7364  -15.7861    0.0000 C   0  0  0  0  0  0  0  0  0  0  0  0
   24.1762  -17.0292    0.0000 C   0  0  0  0  0  0  0  0  0  0  0  0
   18.1987  -19.0392    0.0000 C   0  0  0  0  0  0  0  0  0  0  0  0
   19.4069  -16.9827    0.0000 C   0  0  0  0  0  0  0  0  0  0  0  0
   19.3895  -21.1131    0.0000 C   0  0  0  0  0  0  0  0  0  0  0  0
   22.9738  -14.9555    0.0000 O   0  0  0  0  0  0  0  0  0  0  0  0
   18.1929  -20.4160    0.0000 C   0  0  0  0  0  0  0  0  0  0  0  0
   17.0194  -18.3537    0.0000 C   0  0  0  0  0  0  0  0  0  0  0  0
   17.0194  -21.1072    0.0000 C   0  0  0  0  0  0  0  0  0  0  0  0
   15.8286  -19.0392    0.0000 C   0  0  0  0  0  0  0  0  0  0  0  0
   15.8286  -20.4160    0.0000 C   0  0  0  0  0  0  0  0  0  0  0  0
   14.6261  -21.1072    0.0000 O   0  0  0  0  0  0  0  0  0  0  0  0
   24.1719  -14.2605    0.0000 C   0  0  0  0  0  0  0  0  0  0  0  0
   25.3722  -14.9485    0.0000 C   0  0  0  0  0  0  0  0  0  0  0  0
   26.5725  -14.2536    0.0000 C   0  0  0  0  0  0  0  0  0  0  0  0
   27.7727  -14.9415    0.0000 C   0  0  0  0  0  0  0  0  0  0  0  0
   24.1648  -12.8707    0.0000 O   0  0  0  0  0  0  0  0  0  0  0  0
   28.9742  -14.2427    0.0000 C   0  0  0  0  0  0  0  0  0  0  0  0
  1  2  1  0
  1  3  1  0
  1  4  1  6
  2  5  1  0
  2  6  1  1
  3  7  1  0
  3  8  1  1
  4  9  1  0
  5 10  1  0
  5 11  1  0
  5 12  1  1
  6 13  1  0
  7 14  1  0
  7 15  1  1
  8 16  1  0
 10 17  2  0
 11 18  1  0
 14 19  1  1
 17 20  1  0
 20 21  2  0
  7 13  1  0
  9 10  1  0
 14 16  1  0
 18 20  1  0
 19 22  1  0
 22 23  1  0
 22 24  2  0
 23 25  1  0
 25 26  1  0
 26 27  1  0
 27 28  1  0
 28 29  1  0
 30 31  1  0
 30 32  1  0
 30 33  1  1
 31 34  1  0
 31 35  1  6
 32 36  1  0
 32 37  1  0
 32 38  1  1
 33 39  1  0
 34 40  1  0
 34 41  1  1
 35 42  1  0
 36 43  2  0
 37 44  1  0
 40 45  1  0
 40 46  1  1
 41 47  1  0
 43 48  1  0
 45 49  1  1
 48 50  2  0
 49 51  1  0
 51 52  1  0
 51 53  2  0
 52 54  1  0
 36 42  1  0
 39 40  1  0
 44 48  1  0
 45 47  1  0
 61 64  1  0
 62 66  1  0
 67 69  1  0
 72 73  1  0
 55 56  1  0
 55 57  1  0
 55 58  1  1
 56 59  1  0
 56 60  1  6
 57 61  1  0
 57 62  1  0
 57 63  1  1
 58 64  1  0
 59 65  1  0
 59 66  1  1
 60 67  1  0
 61 68  1  1
 65 69  2  0
 68 75  1  0
 65 70  1  0
 75 76  1  0
 69 71  1  0
 76 77  1  0
 70 72  2  0
 77 78  1  0
 71 73  2  0
 75 79  2  0
 73 74  1  0
 78 80  1  0
M  END
