15521-50-3.mol
     RDKit          2D

414425  0  0  1  0  0  0  0  0999 V2000
   -2.5288    2.2200    0.0000 S   0  0  0  0  0  0  0  0  0  0  0  0
   -3.0808    1.6069    0.0000 S   0  0  0  0  0  0  0  0  0  0  0  0
   -5.6264  -18.3055    0.0000 S   0  0  0  0  0  0  0  0  0  0  0  0
   -4.8193  -18.4770    0.0000 S   0  0  0  0  0  0  0  0  0  0  0  0
   -2.7375  -22.5719    0.0000 S   0  0  0  0  0  0  0  0  0  0  0  0
   -1.9305  -22.7434    0.0000 S   0  0  0  0  0  0  0  0  0  0  0  0
   -9.5162   14.0227    0.0000 O   0  0  0  0  0  0  0  0  0  0  0  0
  -10.5428   13.5656    0.0000 O   0  0  0  0  0  0  0  0  0  0  0  0
   -6.7206   13.4285    0.0000 O   0  0  0  0  0  0  0  0  0  0  0  0
   -6.5491   14.2355    0.0000 O   0  0  0  0  0  0  0  0  0  0  0  0
  -13.4009   12.7406    0.0000 O   0  0  0  0  0  0  0  0  0  0  0  0
  -12.6864   11.5030    0.0000 O   0  0  0  0  0  0  0  0  0  0  0  0
   -5.7644   14.4904    0.0000 O   0  0  0  0  0  0  0  0  0  0  0  0
  -14.8300   16.0408    0.0000 O   0  0  0  0  0  0  0  0  0  0  0  0
   -6.9176   19.3747    0.0000 O   0  0  0  0  0  0  0  0  0  0  0  0
   -5.1513   13.9384    0.0000 O   0  0  0  0  0  0  0  0  0  0  0  0
   -5.3228   13.1314    0.0000 O   0  0  0  0  0  0  0  0  0  0  0  0
   -5.2243   10.1583    0.0000 O   0  0  0  0  0  0  0  0  0  0  0  0
   -2.6002    8.7570    0.0000 O   0  0  0  0  0  0  0  0  0  0  0  0
   -3.8995    6.0810    0.0000 O   0  0  0  0  0  0  0  0  0  0  0  0
   -5.4688    5.5711    0.0000 O   0  0  0  0  0  0  0  0  0  0  0  0
   -5.9104    6.9302    0.0000 O   0  0  0  0  0  0  0  0  0  0  0  0
   -1.2754    4.6798    0.0000 O   0  0  0  0  0  0  0  0  0  0  0  0
   -1.7216    2.0484    0.0000 O   0  0  0  0  0  0  0  0  0  0  0  0
    1.2514    2.1469    0.0000 O   0  0  0  0  0  0  0  0  0  0  0  0
    1.4642   -0.8202    0.0000 O   0  0  0  0  0  0  0  0  0  0  0  0
    1.7192   -1.6049    0.0000 O   0  0  0  0  0  0  0  0  0  0  0  0
    1.8497  -22.8164    0.0000 O   0  0  0  0  0  0  0  0  0  0  0  0
   -0.0634   -9.9917    0.0000 O   0  0  0  0  0  0  0  0  0  0  0  0
    1.6369  -19.8493    0.0000 O   0  0  0  0  0  0  0  0  0  0  0  0
    2.3997   -8.3238    0.0000 O   0  0  0  0  0  0  0  0  0  0  0  0
    3.2910   -4.1304    0.0000 O   0  0  0  0  0  0  0  0  0  0  0  0
    0.8279   -5.7983    0.0000 O   0  0  0  0  0  0  0  0  0  0  0  0
    1.5084  -12.5172    0.0000 O   0  0  0  0  0  0  0  0  0  0  0  0
   -1.3363  -19.9478    0.0000 O   0  0  0  0  0  0  0  0  0  0  0  0
    4.8228  -22.7179    0.0000 O   0  0  0  0  0  0  0  0  0  0  0  0
   -4.7370   -0.2325    0.0000 O   0  0  0  0  0  0  0  0  0  0  0  0
   -8.3023  -17.0062    0.0000 O   0  0  0  0  0  0  0  0  0  0  0  0
   -4.8635   -6.7799    0.0000 O   0  0  0  0  0  0  0  0  0  0  0  0
   -5.4999  -11.7580    0.0000 O   0  0  0  0  0  0  0  0  0  0  0  0
   -7.3267   -8.4479    0.0000 O   0  0  0  0  0  0  0  0  0  0  0  0
    6.6035   -0.4516    0.0000 O   0  0  0  0  0  0  0  0  0  0  0  0
   -2.1432  -19.7763    0.0000 O   0  0  0  0  0  0  0  0  0  0  0  0
   -4.4821   -1.0172    0.0000 O   0  0  0  0  0  0  0  0  0  0  0  0
   -5.7548  -10.9734    0.0000 O   0  0  0  0  0  0  0  0  0  0  0  0
    4.0138   -8.6668    0.0000 O   0  0  0  0  0  0  0  0  0  0  0  0
   -6.7528  -19.1052    0.0000 O   0  0  0  0  0  0  0  0  0  0  0  0
    2.7411  -18.6230    0.0000 O   0  0  0  0  0  0  0  0  0  0  0  0
   -5.2871  -14.7252    0.0000 O   0  0  0  0  0  0  0  0  0  0  0  0
    1.7634  -13.3019    0.0000 O   0  0  0  0  0  0  0  0  0  0  0  0
    4.3109   -7.2691    0.0000 O   0  0  0  0  0  0  0  0  0  0  0  0
   -7.7503  -16.3930    0.0000 O   0  0  0  0  0  0  0  0  0  0  0  0
    1.6791  -17.6668    0.0000 O   0  0  0  0  0  0  0  0  0  0  0  0
   -6.4354   -4.2544    0.0000 O   0  0  0  0  0  0  0  0  0  0  0  0
   -8.0052  -15.6084    0.0000 O   0  0  0  0  0  0  0  0  0  0  0  0
   -8.6417  -20.5864    0.0000 O   0  0  0  0  0  0  0  0  0  0  0  0
   -5.0341   -1.6304    0.0000 O   0  0  0  0  0  0  0  0  0  0  0  0
   -5.1164  -19.8748    0.0000 O   0  0  0  0  0  0  0  0  0  0  0  0
   -2.6954  -20.3894    0.0000 O   0  0  0  0  0  0  0  0  0  0  0  0
    1.1692  -16.0975    0.0000 O   0  0  0  0  0  0  0  0  0  0  0  0
   -6.7726  -21.7142    0.0000 O   0  0  0  0  0  0  0  0  0  0  0  0
   -2.6110  -16.0245    0.0000 O   0  0  0  0  0  0  0  0  0  0  0  0
   -4.0966  -23.0135    0.0000 O   0  0  0  0  0  0  0  0  0  0  0  0
   -3.8437   -9.9187    0.0000 O   0  0  0  0  0  0  0  0  0  0  0  0
   -6.3089    2.2930    0.0000 O   0  0  0  0  0  0  0  0  0  0  0  0
   -3.2495   -7.1231    0.0000 O   0  0  0  0  0  0  0  0  0  0  0  0
   -4.9498    2.7345    0.0000 O   0  0  0  0  0  0  0  0  0  0  0  0
    1.9762  -16.2690    0.0000 O   0  0  0  0  0  0  0  0  0  0  0  0
   -2.9523   -5.7253    0.0000 O   0  0  0  0  0  0  0  0  0  0  0  0
    5.1621  -19.1376    0.0000 O   0  0  0  0  0  0  0  0  0  0  0  0
  -10.1292  -13.6959    0.0000 O   0  0  0  0  0  0  0  0  0  0  0  0
   -5.8412   -1.4588    0.0000 O   0  0  0  0  0  0  0  0  0  0  0  0
    8.1352  -19.0391    0.0000 O   0  0  0  0  0  0  0  0  0  0  0  0
   -6.8610    1.6799    0.0000 O   0  0  0  0  0  0  0  0  0  0  0  0
    4.9493  -16.1705    0.0000 O   0  0  0  0  0  0  0  0  0  0  0  0
   -1.5932   -5.2836    0.0000 O   0  0  0  0  0  0  0  0  0  0  0  0
    8.9423  -19.2106    0.0000 O   0  0  0  0  0  0  0  0  0  0  0  0
   11.9153  -19.1121    0.0000 O   0  0  0  0  0  0  0  0  0  0  0  0
   12.7224  -19.2837    0.0000 O   0  0  0  0  0  0  0  0  0  0  0  0
   11.9575  -16.9297    0.0000 O   0  0  0  0  0  0  0  0  0  0  0  0
   15.3984  -20.5829    0.0000 O   0  0  0  0  0  0  0  0  0  0  0  0
   12.1282  -22.0793    0.0000 O   0  0  0  0  0  0  0  0  0  0  0  0
   -9.0746   12.6636    0.0000 N   0  0  0  0  0  0  0  0  0  0  0  0
  -11.2573   12.3281    0.0000 N   0  0  0  0  0  0  0  0  0  0  0  0
   -7.9469   14.5326    0.0000 N   0  0  0  0  0  0  0  0  0  0  0  0
   -6.2059   15.8495    0.0000 N   0  0  0  0  0  0  0  0  0  0  0  0
  -13.4009   16.0408    0.0000 N   0  0  0  0  0  0  0  0  0  0  0  0
   -4.1951   15.0004    0.0000 N   0  0  0  0  0  0  0  0  0  0  0  0
   -3.9250   12.8342    0.0000 N   0  0  0  0  0  0  0  0  0  0  0  0
   -4.2681   11.2202    0.0000 N   0  0  0  0  0  0  0  0  0  0  0  0
   -3.9980    9.0541    0.0000 N   0  0  0  0  0  0  0  0  0  0  0  0
   -1.0309    9.2669    0.0000 N   0  0  0  0  0  0  0  0  0  0  0  0
   -2.9433    7.1429    0.0000 N   0  0  0  0  0  0  0  0  0  0  0  0
    0.3669    8.9698    0.0000 N   0  0  0  0  0  0  0  0  0  0  0  0
   -0.0747   10.3289    0.0000 N   0  0  0  0  0  0  0  0  0  0  0  0
   -2.6732    4.9769    0.0000 N   0  0  0  0  0  0  0  0  0  0  0  0
   -1.4246    3.4462    0.0000 N   0  0  0  0  0  0  0  0  0  0  0  0
   -0.1077    1.7054    0.0000 N   0  0  0  0  0  0  0  0  0  0  0  0
    1.7613    0.5776    0.0000 N   0  0  0  0  0  0  0  0  0  0  0  0
    3.0783   -1.1632    0.0000 N   0  0  0  0  0  0  0  0  0  0  0  0
    2.1468  -21.4186    0.0000 N   0  0  0  0  0  0  0  0  0  0  0  0
    2.2290   -3.1742    0.0000 N   0  0  0  0  0  0  0  0  0  0  0  0
    1.2957   -9.5500    0.0000 N   0  0  0  0  0  0  0  0  0  0  0  0
    3.4637  -23.1595    0.0000 N   0  0  0  0  0  0  0  0  0  0  0  0
    0.4464  -11.5610    0.0000 N   0  0  0  0  0  0  0  0  0  0  0  0
    1.3378   -7.3676    0.0000 N   0  0  0  0  0  0  0  0  0  0  0  0
    0.2778  -20.2909    0.0000 N   0  0  0  0  0  0  0  0  0  0  0  0
    2.1870   -5.3566    0.0000 N   0  0  0  0  0  0  0  0  0  0  0  0
   -1.0392  -18.5500    0.0000 N   0  0  0  0  0  0  0  0  0  0  0  0
   -3.1230   -0.5756    0.0000 N   0  0  0  0  0  0  0  0  0  0  0  0
   -5.9676   -8.0062    0.0000 N   0  0  0  0  0  0  0  0  0  0  0  0
    0.4043  -13.7434    0.0000 N   0  0  0  0  0  0  0  0  0  0  0  0
   -8.3445  -19.1886    0.0000 N   0  0  0  0  0  0  0  0  0  0  0  0
   -6.3490  -13.7690    0.0000 N   0  0  0  0  0  0  0  0  0  0  0  0
   -6.8590  -12.1996    0.0000 N   0  0  0  0  0  0  0  0  0  0  0  0
   -6.8168  -10.0172    0.0000 N   0  0  0  0  0  0  0  0  0  0  0  0
   -7.2404  -17.9624    0.0000 N   0  0  0  0  0  0  0  0  0  0  0  0
   -5.9254   -5.8238    0.0000 N   0  0  0  0  0  0  0  0  0  0  0  0
   -4.4399    1.1653    0.0000 N   0  0  0  0  0  0  0  0  0  0  0  0
   -3.2052  -18.8201    0.0000 N   0  0  0  0  0  0  0  0  0  0  0  0
   -6.3912  -15.9514    0.0000 N   0  0  0  0  0  0  0  0  0  0  0  0
   -3.9721   -2.5865    0.0000 N   0  0  0  0  0  0  0  0  0  0  0  0
   -5.0763   -3.8128    0.0000 N   0  0  0  0  0  0  0  0  0  0  0  0
   -6.4755  -20.3164    0.0000 N   0  0  0  0  0  0  0  0  0  0  0  0
    3.9737  -24.7288    0.0000 N   0  0  0  0  0  0  0  0  0  0  0  0
   -4.0545  -20.8310    0.0000 N   0  0  0  0  0  0  0  0  0  0  0  0
   -2.0303  -13.3142    0.0000 N   0  0  0  0  0  0  0  0  0  0  0  0
   -5.1585  -22.0573    0.0000 N   0  0  0  0  0  0  0  0  0  0  0  0
    2.2733  -14.8712    0.0000 N   0  0  0  0  0  0  0  0  0  0  0  0
   -1.7527  -14.6200    0.0000 N   0  0  0  0  0  0  0  0  0  0  0  0
    7.0732  -18.0829    0.0000 N   0  0  0  0  0  0  0  0  0  0  0  0
    5.4592  -17.7398    0.0000 N   0  0  0  0  0  0  0  0  0  0  0  0
   -3.9701  -16.4660    0.0000 N   0  0  0  0  0  0  0  0  0  0  0  0
   -3.5466   -8.5209    0.0000 N   0  0  0  0  0  0  0  0  0  0  0  0
    3.5902  -16.6121    0.0000 N   0  0  0  0  0  0  0  0  0  0  0  0
    9.2394  -17.8128    0.0000 N   0  0  0  0  0  0  0  0  0  0  0  0
   -7.2003   -1.9004    0.0000 N   0  0  0  0  0  0  0  0  0  0  0  0
   10.5563  -19.5537    0.0000 N   0  0  0  0  0  0  0  0  0  0  0  0
   -7.1581    0.2821    0.0000 N   0  0  0  0  0  0  0  0  0  0  0  0
   12.4253  -20.6815    0.0000 N   0  0  0  0  0  0  0  0  0  0  0  0
   14.3364  -19.6268    0.0000 N   0  0  0  0  0  0  0  0  0  0  0  0
    9.5500  -16.3297    0.0000 N   0  0  0  0  0  0  0  0  0  0  0  0
    9.2724  -15.0240    0.0000 N   0  0  0  0  0  0  0  0  0  0  0  0
   13.0195  -17.8859    0.0000 N   0  0  0  0  0  0  0  0  0  0  0  0
   15.4405  -18.4005    0.0000 N   0  0  0  0  0  0  0  0  0  0  0  0
   10.7691  -22.5208    0.0000 N   0  0  0  0  0  0  0  0  0  0  0  0
   -9.8283   12.3281    0.0000 C   0  0  0  0  0  0  0  0  0  0  0  0
   -9.7421   11.5076    0.0000 C   0  0  0  0  0  0  0  0  0  0  0  0
   -8.9350   11.3359    0.0000 C   0  0  0  0  0  0  0  0  0  0  0  0
   -8.5225   12.0505    0.0000 C   0  0  0  0  0  0  0  0  0  0  0  0
   -8.9030   13.4707    0.0000 C   0  0  0  0  0  0  0  0  0  0  0  0
  -10.5428   12.7406    0.0000 C   0  0  0  0  0  0  0  0  0  0  0  0
   -8.1184   13.7256    0.0000 C   0  0  0  0  0  0  0  0  0  0  0  0
   -7.5052   13.1736    0.0000 C   0  0  0  0  0  0  0  0  0  0  0  0
  -11.9719   12.7406    0.0000 C   0  0  0  0  0  0  0  0  0  0  0  0
  -11.9719   13.5656    0.0000 C   0  0  0  0  0  0  0  0  0  0  0  0
   -7.6768   12.3665    0.0000 C   0  0  0  0  0  0  0  0  0  0  0  0
  -12.6864   13.9782    0.0000 C   0  0  0  0  0  0  0  0  0  0  0  0
   -7.1622   14.7875    0.0000 C   0  0  0  0  0  0  0  0  0  0  0  0
   -6.9907   15.5946    0.0000 C   0  0  0  0  0  0  0  0  0  0  0  0
  -12.6864   12.3281    0.0000 C   0  0  0  0  0  0  0  0  0  0  0  0
  -12.6864   14.8032    0.0000 C   0  0  0  0  0  0  0  0  0  0  0  0
   -7.6037   16.1467    0.0000 C   0  0  0  0  0  0  0  0  0  0  0  0
  -13.4009   15.2157    0.0000 C   0  0  0  0  0  0  0  0  0  0  0  0
   -7.4322   16.9537    0.0000 C   0  0  0  0  0  0  0  0  0  0  0  0
   -5.5929   15.2975    0.0000 C   0  0  0  0  0  0  0  0  0  0  0  0
   -4.8081   15.5524    0.0000 C   0  0  0  0  0  0  0  0  0  0  0  0
   -6.6476   17.2087    0.0000 C   0  0  0  0  0  0  0  0  0  0  0  0
   -8.0454   17.5058    0.0000 C   0  0  0  0  0  0  0  0  0  0  0  0
   -4.6366   16.3594    0.0000 C   0  0  0  0  0  0  0  0  0  0  0  0
  -14.1154   16.4533    0.0000 C   0  0  0  0  0  0  0  0  0  0  0  0
  -14.1154   17.2784    0.0000 C   0  0  0  0  0  0  0  0  0  0  0  0
   -6.4761   18.0156    0.0000 C   0  0  0  0  0  0  0  0  0  0  0  0
   -7.8739   18.3128    0.0000 C   0  0  0  0  0  0  0  0  0  0  0  0
   -3.8520   16.6145    0.0000 C   0  0  0  0  0  0  0  0  0  0  0  0
  -14.8300   17.6909    0.0000 C   0  0  0  0  0  0  0  0  0  0  0  0
   -7.0892   18.5678    0.0000 C   0  0  0  0  0  0  0  0  0  0  0  0
   -4.3666   14.1933    0.0000 C   0  0  0  0  0  0  0  0  0  0  0  0
  -14.8300   18.5159    0.0000 C   0  0  0  0  0  0  0  0  0  0  0  0
   -3.7535   13.6413    0.0000 C   0  0  0  0  0  0  0  0  0  0  0  0
  -15.5444   18.9285    0.0000 C   0  0  0  0  0  0  0  0  0  0  0  0
   -3.2388   16.0623    0.0000 C   0  0  0  0  0  0  0  0  0  0  0  0
   -3.6805   17.4214    0.0000 C   0  0  0  0  0  0  0  0  0  0  0  0
   -2.9688   13.8962    0.0000 C   0  0  0  0  0  0  0  0  0  0  0  0
  -15.5444   19.7535    0.0000 C   0  0  0  0  0  0  0  0  0  0  0  0
  -16.2589   20.1660    0.0000 C   0  0  0  0  0  0  0  0  0  0  0  0
   -2.4542   16.3173    0.0000 C   0  0  0  0  0  0  0  0  0  0  0  0
   -2.8958   17.6764    0.0000 C   0  0  0  0  0  0  0  0  0  0  0  0
  -16.2589   20.9911    0.0000 C   0  0  0  0  0  0  0  0  0  0  0  0
   -2.3557   13.3442    0.0000 C   0  0  0  0  0  0  0  0  0  0  0  0
   -2.2827   17.1243    0.0000 C   0  0  0  0  0  0  0  0  0  0  0  0
  -16.9735   21.4036    0.0000 C   0  0  0  0  0  0  0  0  0  0  0  0
   -4.7096   12.5793    0.0000 C   0  0  0  0  0  0  0  0  0  0  0  0
  -16.9735   22.2287    0.0000 C   0  0  0  0  0  0  0  0  0  0  0  0
   -2.5272   12.5371    0.0000 C   0  0  0  0  0  0  0  0  0  0  0  0
   -1.5710   13.5991    0.0000 C   0  0  0  0  0  0  0  0  0  0  0  0
  -17.6880   22.6412    0.0000 C   0  0  0  0  0  0  0  0  0  0  0  0
   -4.8812   11.7723    0.0000 C   0  0  0  0  0  0  0  0  0  0  0  0
  -17.6880   23.4663    0.0000 C   0  0  0  0  0  0  0  0  0  0  0  0
   -1.9140   11.9851    0.0000 C   0  0  0  0  0  0  0  0  0  0  0  0
   -0.9579   13.0471    0.0000 C   0  0  0  0  0  0  0  0  0  0  0  0
   -1.1294   12.2400    0.0000 C   0  0  0  0  0  0  0  0  0  0  0  0
  -18.4025   23.8788    0.0000 C   0  0  0  0  0  0  0  0  0  0  0  0
   -4.4396   10.4132    0.0000 C   0  0  0  0  0  0  0  0  0  0  0  0
   -3.8265    9.8612    0.0000 C   0  0  0  0  0  0  0  0  0  0  0  0
  -18.4025   24.7038    0.0000 C   0  0  0  0  0  0  0  0  0  0  0  0
   -3.0418   10.1161    0.0000 C   0  0  0  0  0  0  0  0  0  0  0  0
   -2.4287    9.5641    0.0000 C   0  0  0  0  0  0  0  0  0  0  0  0
   -3.3849    8.5021    0.0000 C   0  0  0  0  0  0  0  0  0  0  0  0
   -1.6440    9.8190    0.0000 C   0  0  0  0  0  0  0  0  0  0  0  0
   -3.5564    7.6950    0.0000 C   0  0  0  0  0  0  0  0  0  0  0  0
   -4.3411    7.4401    0.0000 C   0  0  0  0  0  0  0  0  0  0  0  0
   -4.5126    6.6331    0.0000 C   0  0  0  0  0  0  0  0  0  0  0  0
   -3.1148    6.3360    0.0000 C   0  0  0  0  0  0  0  0  0  0  0  0
   -0.2462    9.5219    0.0000 C   0  0  0  0  0  0  0  0  0  0  0  0
   -5.2973    6.3781    0.0000 C   0  0  0  0  0  0  0  0  0  0  0  0
   -2.5017    5.7839    0.0000 C   0  0  0  0  0  0  0  0  0  0  0  0
   -2.0601    4.4247    0.0000 C   0  0  0  0  0  0  0  0  0  0  0  0
   -2.2316    3.6178    0.0000 C   0  0  0  0  0  0  0  0  0  0  0  0
   -2.7837    3.0047    0.0000 C   0  0  0  0  0  0  0  0  0  0  0  0
   -0.3626    2.4900    0.0000 C   0  0  0  0  0  0  0  0  0  0  0  0
   -1.1697    2.6615    0.0000 C   0  0  0  0  0  0  0  0  0  0  0  0
    0.1894    3.1032    0.0000 C   0  0  0  0  0  0  0  0  0  0  0  0
    0.9543    0.7491    0.0000 C   0  0  0  0  0  0  0  0  0  0  0  0
    0.4022    0.1361    0.0000 C   0  0  0  0  0  0  0  0  0  0  0  0
    0.6993    1.5338    0.0000 C   0  0  0  0  0  0  0  0  0  0  0  0
   -0.4047    0.3076    0.0000 C   0  0  0  0  0  0  0  0  0  0  0  0
    0.9964    2.9317    0.0000 C   0  0  0  0  0  0  0  0  0  0  0  0
   -0.0655    3.8878    0.0000 C   0  0  0  0  0  0  0  0  0  0  0  0
    2.8233   -0.3786    0.0000 C   0  0  0  0  0  0  0  0  0  0  0  0
    2.0163   -0.2071    0.0000 C   0  0  0  0  0  0  0  0  0  0  0  0
    3.7608  -21.7617    0.0000 C   0  0  0  0  0  0  0  0  0  0  0  0
    2.7812   -2.5610    0.0000 C   0  0  0  0  0  0  0  0  0  0  0  0
    3.2088  -22.3749    0.0000 C   0  0  0  0  0  0  0  0  0  0  0  0
   -0.9568   -0.3056    0.0000 C   0  0  0  0  0  0  0  0  0  0  0  0
   -0.6597    1.0922    0.0000 C   0  0  0  0  0  0  0  0  0  0  0  0
    3.3943   -3.1132    0.0000 C   0  0  0  0  0  0  0  0  0  0  0  0
    1.3398  -21.2471    0.0000 C   0  0  0  0  0  0  0  0  0  0  0  0
    3.3754    0.2346    0.0000 C   0  0  0  0  0  0  0  0  0  0  0  0
    1.0406   -8.7654    0.0000 C   0  0  0  0  0  0  0  0  0  0  0  0
    4.1790   -2.8582    0.0000 C   0  0  0  0  0  0  0  0  0  0  0  0
    0.7878  -21.8602    0.0000 C   0  0  0  0  0  0  0  0  0  0  0  0
    0.9985  -10.9478    0.0000 C   0  0  0  0  0  0  0  0  0  0  0  0
    1.8055  -11.1194    0.0000 C   0  0  0  0  0  0  0  0  0  0  0  0
    0.2337   -8.5939    0.0000 C   0  0  0  0  0  0  0  0  0  0  0  0
    2.5261   -1.7764    0.0000 C   0  0  0  0  0  0  0  0  0  0  0  0
    4.5679  -21.9332    0.0000 C   0  0  0  0  0  0  0  0  0  0  0  0
    2.5902  -10.8644    0.0000 C   0  0  0  0  0  0  0  0  0  0  0  0
    2.4018  -22.2033    0.0000 C   0  0  0  0  0  0  0  0  0  0  0  0
    3.5059  -20.9771    0.0000 C   0  0  0  0  0  0  0  0  0  0  0  0
    0.7435  -10.1632    0.0000 C   0  0  0  0  0  0  0  0  0  0  0  0
    1.0849  -20.4624    0.0000 C   0  0  0  0  0  0  0  0  0  0  0  0
    1.8899   -6.7544    0.0000 C   0  0  0  0  0  0  0  0  0  0  0  0
    1.5928   -8.1522    0.0000 C   0  0  0  0  0  0  0  0  0  0  0  0
   -2.8259    0.8222    0.0000 C   0  0  0  0  0  0  0  0  0  0  0  0
    4.1823    0.0630    0.0000 C   0  0  0  0  0  0  0  0  0  0  0  0
    0.0229  -19.5063    0.0000 C   0  0  0  0  0  0  0  0  0  0  0  0
    4.7921   -3.4103    0.0000 C   0  0  0  0  0  0  0  0  0  0  0  0
    4.3505   -2.0512    0.0000 C   0  0  0  0  0  0  0  0  0  0  0  0
    1.9320   -4.5719    0.0000 C   0  0  0  0  0  0  0  0  0  0  0  0
    1.0427  -22.6449    0.0000 C   0  0  0  0  0  0  0  0  0  0  0  0
   -0.0193  -21.6887    0.0000 C   0  0  0  0  0  0  0  0  0  0  0  0
    2.4841   -3.9588    0.0000 C   0  0  0  0  0  0  0  0  0  0  0  0
   -0.3184   -9.2070    0.0000 C   0  0  0  0  0  0  0  0  0  0  0  0
   -0.0213   -7.8092    0.0000 C   0  0  0  0  0  0  0  0  0  0  0  0
   -3.3779    0.2091    0.0000 C   0  0  0  0  0  0  0  0  0  0  0  0
    5.1199  -21.3201    0.0000 C   0  0  0  0  0  0  0  0  0  0  0  0
    2.6969   -6.9260    0.0000 C   0  0  0  0  0  0  0  0  0  0  0  0
    3.2033  -11.4165    0.0000 C   0  0  0  0  0  0  0  0  0  0  0  0
    2.7618  -10.0574    0.0000 C   0  0  0  0  0  0  0  0  0  0  0  0
    1.6349   -5.9697    0.0000 C   0  0  0  0  0  0  0  0  0  0  0  0
    0.5749  -18.8931    0.0000 C   0  0  0  0  0  0  0  0  0  0  0  0
    0.1493  -12.9588    0.0000 C   0  0  0  0  0  0  0  0  0  0  0  0
    0.7014  -12.3456    0.0000 C   0  0  0  0  0  0  0  0  0  0  0  0
   -9.4065  -18.2325    0.0000 C   0  0  0  0  0  0  0  0  0  0  0  0
   -8.5995  -18.4040    0.0000 C   0  0  0  0  0  0  0  0  0  0  0  0
   -0.7842  -19.3346    0.0000 C   0  0  0  0  0  0  0  0  0  0  0  0
   -6.5808   -7.4542    0.0000 C   0  0  0  0  0  0  0  0  0  0  0  0
    4.2708  -23.3310    0.0000 C   0  0  0  0  0  0  0  0  0  0  0  0
   -7.3655   -7.7091    0.0000 C   0  0  0  0  0  0  0  0  0  0  0  0
    4.4374   -0.7217    0.0000 C   0  0  0  0  0  0  0  0  0  0  0  0
    4.7345    0.6761    0.0000 C   0  0  0  0  0  0  0  0  0  0  0  0
   -5.7970  -13.1558    0.0000 C   0  0  0  0  0  0  0  0  0  0  0  0
    1.1250   -4.4004    0.0000 C   0  0  0  0  0  0  0  0  0  0  0  0
   -1.8461  -18.3785    0.0000 C   0  0  0  0  0  0  0  0  0  0  0  0
    2.9519   -7.7107    0.0000 C   0  0  0  0  0  0  0  0  0  0  0  0
   -4.9899  -13.3274    0.0000 C   0  0  0  0  0  0  0  0  0  0  0  0
   -7.9786   -7.1571    0.0000 C   0  0  0  0  0  0  0  0  0  0  0  0
   -0.6577  -12.7873    0.0000 C   0  0  0  0  0  0  0  0  0  0  0  0
   -9.9585  -18.8456    0.0000 C   0  0  0  0  0  0  0  0  0  0  0  0
   -4.4379  -12.7143    0.0000 C   0  0  0  0  0  0  0  0  0  0  0  0
    1.3820  -19.0646    0.0000 C   0  0  0  0  0  0  0  0  0  0  0  0
   -6.2648   -9.4040    0.0000 C   0  0  0  0  0  0  0  0  0  0  0  0
   -7.1139  -11.4150    0.0000 C   0  0  0  0  0  0  0  0  0  0  0  0
   -4.1850    0.3806    0.0000 C   0  0  0  0  0  0  0  0  0  0  0  0
   -2.1011  -17.5938    0.0000 C   0  0  0  0  0  0  0  0  0  0  0  0
   -8.0474  -17.7908    0.0000 C   0  0  0  0  0  0  0  0  0  0  0  0
   -9.6614  -17.4477    0.0000 C   0  0  0  0  0  0  0  0  0  0  0  0
   -5.6705   -6.6084    0.0000 C   0  0  0  0  0  0  0  0  0  0  0  0
    4.5257  -24.1157    0.0000 C   0  0  0  0  0  0  0  0  0  0  0  0
   -6.0519  -12.3712    0.0000 C   0  0  0  0  0  0  0  0  0  0  0  0
   -6.5197   -8.6194    0.0000 C   0  0  0  0  0  0  0  0  0  0  0  0
   -5.4577   -9.5756    0.0000 C   0  0  0  0  0  0  0  0  0  0  0  0
    5.2444   -0.8932    0.0000 C   0  0  0  0  0  0  0  0  0  0  0  0
    5.5415    0.5046    0.0000 C   0  0  0  0  0  0  0  0  0  0  0  0
   -6.6883  -17.3492    0.0000 C   0  0  0  0  0  0  0  0  0  0  0  0
   -5.3734   -5.2106    0.0000 C   0  0  0  0  0  0  0  0  0  0  0  0
   -3.4201   -1.9734    0.0000 C   0  0  0  0  0  0  0  0  0  0  0  0
   -3.6750   -1.1887    0.0000 C   0  0  0  0  0  0  0  0  0  0  0  0
   -7.9210  -11.2435    0.0000 C   0  0  0  0  0  0  0  0  0  0  0  0
   -2.3983  -18.9916    0.0000 C   0  0  0  0  0  0  0  0  0  0  0  0
   -6.5619  -10.8018    0.0000 C   0  0  0  0  0  0  0  0  0  0  0  0
   -8.7633   -7.4120    0.0000 C   0  0  0  0  0  0  0  0  0  0  0  0
   -7.8070   -6.3500    0.0000 C   0  0  0  0  0  0  0  0  0  0  0  0
    5.7964   -0.2801    0.0000 C   0  0  0  0  0  0  0  0  0  0  0  0
   -6.6461  -15.1668    0.0000 C   0  0  0  0  0  0  0  0  0  0  0  0
   -1.2098  -13.4004    0.0000 C   0  0  0  0  0  0  0  0  0  0  0  0
  -10.7656  -18.6740    0.0000 C   0  0  0  0  0  0  0  0  0  0  0  0
   -3.6309  -12.8858    0.0000 C   0  0  0  0  0  0  0  0  0  0  0  0
   -4.6928  -11.9296    0.0000 C   0  0  0  0  0  0  0  0  0  0  0  0
   -7.2826  -20.1448    0.0000 C   0  0  0  0  0  0  0  0  0  0  0  0
   -7.5375  -19.3602    0.0000 C   0  0  0  0  0  0  0  0  0  0  0  0
   -3.7573  -19.4332    0.0000 C   0  0  0  0  0  0  0  0  0  0  0  0
   -2.9081  -17.4223    0.0000 C   0  0  0  0  0  0  0  0  0  0  0  0
   -6.0941  -14.5536    0.0000 C   0  0  0  0  0  0  0  0  0  0  0  0
   -4.5664   -5.3821    0.0000 C   0  0  0  0  0  0  0  0  0  0  0  0
    1.2113  -13.9150    0.0000 C   0  0  0  0  0  0  0  0  0  0  0  0
    3.7588   -7.8822    0.0000 C   0  0  0  0  0  0  0  0  0  0  0  0
   -6.9433  -16.5646    0.0000 C   0  0  0  0  0  0  0  0  0  0  0  0
    1.4663  -14.6997    0.0000 C   0  0  0  0  0  0  0  0  0  0  0  0
   -4.9057   -8.9624    0.0000 C   0  0  0  0  0  0  0  0  0  0  0  0
   -5.8813  -17.5208    0.0000 C   0  0  0  0  0  0  0  0  0  0  0  0
   -2.6130   -2.1450    0.0000 C   0  0  0  0  0  0  0  0  0  0  0  0
   -5.3312   -3.0282    0.0000 C   0  0  0  0  0  0  0  0  0  0  0  0
    1.9340  -18.4515    0.0000 C   0  0  0  0  0  0  0  0  0  0  0  0
   -5.6283   -4.4260    0.0000 C   0  0  0  0  0  0  0  0  0  0  0  0
   -5.2470    1.3368    0.0000 C   0  0  0  0  0  0  0  0  0  0  0  0
   -8.4730  -11.8566    0.0000 C   0  0  0  0  0  0  0  0  0  0  0  0
   -5.4135  -21.2726    0.0000 C   0  0  0  0  0  0  0  0  0  0  0  0
   -4.5643  -19.2617    0.0000 C   0  0  0  0  0  0  0  0  0  0  0  0
   -7.4532  -14.9952    0.0000 C   0  0  0  0  0  0  0  0  0  0  0  0
   -4.7792   -2.4150    0.0000 C   0  0  0  0  0  0  0  0  0  0  0  0
   -4.3114   -6.1668    0.0000 C   0  0  0  0  0  0  0  0  0  0  0  0
   -3.5023  -20.2179    0.0000 C   0  0  0  0  0  0  0  0  0  0  0  0
   -1.0382  -14.2075    0.0000 C   0  0  0  0  0  0  0  0  0  0  0  0
   -3.7994  -21.6157    0.0000 C   0  0  0  0  0  0  0  0  0  0  0  0
   -7.8346  -20.7580    0.0000 C   0  0  0  0  0  0  0  0  0  0  0  0
   -6.2206  -21.1011    0.0000 C   0  0  0  0  0  0  0  0  0  0  0  0
   -6.1383   -2.8566    0.0000 C   0  0  0  0  0  0  0  0  0  0  0  0
   -4.8614  -20.6595    0.0000 C   0  0  0  0  0  0  0  0  0  0  0  0
    0.9142  -15.3128    0.0000 C   0  0  0  0  0  0  0  0  0  0  0  0
   -2.3581   -2.9297    0.0000 C   0  0  0  0  0  0  0  0  0  0  0  0
   -3.1631  -16.6376    0.0000 C   0  0  0  0  0  0  0  0  0  0  0  0
   -5.7990    0.7237    0.0000 C   0  0  0  0  0  0  0  0  0  0  0  0
   -4.3516  -22.2288    0.0000 C   0  0  0  0  0  0  0  0  0  0  0  0
    6.5212  -18.6961    0.0000 C   0  0  0  0  0  0  0  0  0  0  0  0
   -4.0986   -9.1340    0.0000 C   0  0  0  0  0  0  0  0  0  0  0  0
    6.7761  -19.4807    0.0000 C   0  0  0  0  0  0  0  0  0  0  0  0
   -9.2800  -11.6850    0.0000 C   0  0  0  0  0  0  0  0  0  0  0  0
   -8.2181  -12.6413    0.0000 C   0  0  0  0  0  0  0  0  0  0  0  0
   -2.9925  -21.7872    0.0000 C   0  0  0  0  0  0  0  0  0  0  0  0
    6.2241  -20.0939    0.0000 C   0  0  0  0  0  0  0  0  0  0  0  0
   -2.3659  -14.0679    0.0000 C   0  0  0  0  0  0  0  0  0  0  0  0
   -5.5019    2.1215    0.0000 C   0  0  0  0  0  0  0  0  0  0  0  0
   -4.6065  -21.4441    0.0000 C   0  0  0  0  0  0  0  0  0  0  0  0
    4.6522  -17.5683    0.0000 C   0  0  0  0  0  0  0  0  0  0  0  0
    2.5283  -15.6559    0.0000 C   0  0  0  0  0  0  0  0  0  0  0  0
   -3.5044   -6.3384    0.0000 C   0  0  0  0  0  0  0  0  0  0  0  0
    5.7142  -18.5245    0.0000 C   0  0  0  0  0  0  0  0  0  0  0  0
   -2.9101   -3.5428    0.0000 C   0  0  0  0  0  0  0  0  0  0  0  0
   -1.5510   -3.1012    0.0000 C   0  0  0  0  0  0  0  0  0  0  0  0
   -6.3932   -2.0719    0.0000 C   0  0  0  0  0  0  0  0  0  0  0  0
   -9.8321  -12.2981    0.0000 C   0  0  0  0  0  0  0  0  0  0  0  0
   -8.7701  -13.2544    0.0000 C   0  0  0  0  0  0  0  0  0  0  0  0
    8.4323  -17.6413    0.0000 C   0  0  0  0  0  0  0  0  0  0  0  0
    3.3353  -15.8274    0.0000 C   0  0  0  0  0  0  0  0  0  0  0  0
    6.4790  -20.8785    0.0000 C   0  0  0  0  0  0  0  0  0  0  0  0
    5.4170  -19.9223    0.0000 C   0  0  0  0  0  0  0  0  0  0  0  0
   -9.5771  -13.0828    0.0000 C   0  0  0  0  0  0  0  0  0  0  0  0
   -1.6755  -23.5281    0.0000 C   0  0  0  0  0  0  0  0  0  0  0  0
   -6.6060    0.8953    0.0000 C   0  0  0  0  0  0  0  0  0  0  0  0
    7.8803  -18.2544    0.0000 C   0  0  0  0  0  0  0  0  0  0  0  0
    4.3973  -16.7836    0.0000 C   0  0  0  0  0  0  0  0  0  0  0  0
    8.1774  -16.8566    0.0000 C   0  0  0  0  0  0  0  0  0  0  0  0
   10.3013  -18.7691    0.0000 C   0  0  0  0  0  0  0  0  0  0  0  0
   -2.6552   -4.3275    0.0000 C   0  0  0  0  0  0  0  0  0  0  0  0
   -1.2961   -3.8858    0.0000 C   0  0  0  0  0  0  0  0  0  0  0  0
    9.4944  -18.5975    0.0000 C   0  0  0  0  0  0  0  0  0  0  0  0
   -1.8482   -4.4990    0.0000 C   0  0  0  0  0  0  0  0  0  0  0  0
   10.8534  -18.1560    0.0000 C   0  0  0  0  0  0  0  0  0  0  0  0
    8.7294  -16.2435    0.0000 C   0  0  0  0  0  0  0  0  0  0  0  0
   11.6183  -20.5099    0.0000 C   0  0  0  0  0  0  0  0  0  0  0  0
   13.7844  -20.2399    0.0000 C   0  0  0  0  0  0  0  0  0  0  0  0
   14.0393  -21.0246    0.0000 C   0  0  0  0  0  0  0  0  0  0  0  0
   11.3633  -19.7253    0.0000 C   0  0  0  0  0  0  0  0  0  0  0  0
   11.6604  -18.3275    0.0000 C   0  0  0  0  0  0  0  0  0  0  0  0
   12.9773  -20.0684    0.0000 C   0  0  0  0  0  0  0  0  0  0  0  0
   11.0662  -21.1230    0.0000 C   0  0  0  0  0  0  0  0  0  0  0  0
    8.5579  -15.4364    0.0000 C   0  0  0  0  0  0  0  0  0  0  0  0
   14.8463  -21.1961    0.0000 C   0  0  0  0  0  0  0  0  0  0  0  0
   13.4872  -21.6377    0.0000 C   0  0  0  0  0  0  0  0  0  0  0  0
   12.2125  -17.7143    0.0000 C   0  0  0  0  0  0  0  0  0  0  0  0
   15.1434  -19.7983    0.0000 C   0  0  0  0  0  0  0  0  0  0  0  0
   15.6955  -19.1851    0.0000 C   0  0  0  0  0  0  0  0  0  0  0  0
    9.8855  -15.5760    0.0000 C   0  0  0  0  0  0  0  0  0  0  0  0
   11.3212  -21.9077    0.0000 C   0  0  0  0  0  0  0  0  0  0  0  0
   16.5025  -19.3567    0.0000 C   0  0  0  0  0  0  0  0  0  0  0  0
   17.0545  -18.7436    0.0000 C   0  0  0  0  0  0  0  0  0  0  0  0
   17.8616  -18.9151    0.0000 C   0  0  0  0  0  0  0  0  0  0  0  0
   16.7996  -17.9589    0.0000 C   0  0  0  0  0  0  0  0  0  0  0  0
   18.4136  -18.3020    0.0000 C   0  0  0  0  0  0  0  0  0  0  0  0
   17.3517  -17.3458    0.0000 C   0  0  0  0  0  0  0  0  0  0  0  0
   18.1587  -17.5173    0.0000 C   0  0  0  0  0  0  0  0  0  0  0  0
    0.4119   10.4870    0.0000 H   0  0  0  0  0  0  0  0  0  0  0  0
  1  2  1  0
  1220  1  0
  2255  1  0
  3  4  1  0
  3332  1  0
  4340  1  0
  5  6  1  0
  5361  1  0
  6380  1  0
  7151  2  0
  8152  2  0
154  9  1  0
 10159  2  0
 11161  1  0
 12161  2  0
 13166  2  0
 14171  2  0
 15177  1  0
 16178  2  0
 17193  2  0
 18204  2  0
 19209  2  0
 20214  2  0
 21216  1  0
 22216  2  0
 23218  2  0
 24222  2  0
 25226  2  0
 26231  2  0
 27246  2  0
 28249  2  0
 29251  2  0
 30252  2  0
 31254  2  0
 32263  2  0
 33271  2  0
 34274  2  0
 35277  2  0
 36279  2  0
 37295  2  0
 38297  2  0
 39299  2  0
 40301  2  0
 41302  2  0
 42315  1  0
 43311  2  0
 44309  2  0
 45312  2  0
 46328  1  0
 47322  2  0
 48335  1  0
 49325  2  0
 50327  2  0
 51328  2  0
 52329  2  0
 53335  2  0
 54336  2  0
 55341  1  0
 56347  1  0
 57342  2  0
350 58  1  0
 59344  2  0
 60351  1  0
 61348  2  0
 62353  2  0
 63355  2  0
 64357  2  0
 65364  1  0
 66368  1  0
 67364  2  0
 68367  2  0
 69368  2  0
 70369  2  0
 71379  1  0
 72372  2  0
 73382  2  0
 74381  2  0
 75383  2  0
 76389  1  0
 77388  2  0
 78395  2  0
 79397  2  0
 80402  2  0
 81403  2  0
 82406  2  0
 83147  1  0
 83150  1  0
 83151  1  0
 84152  1  0
155 84  1  0
153 85  1  1
 85159  1  0
160 86  1  0
 86166  1  0
 87164  1  0
 87171  1  0
167 88  1  0
 88178  1  0
180 89  1  0
 89193  1  0
 90198  1  0
 90204  1  0
205 91  1  0
 91209  1  0
 92210  1  0
 92215  1  0
211 93  1  0
 93214  1  0
 94215  1  0
 95215  2  0
 95414  1  0
 96217  1  0
 96218  1  0
219 97  1  0
 97222  1  0
221 98  1  0
 98226  1  0
224 99  1  0
 99231  1  0
230100  1  0
100246  1  0
238101  1  1
101249  1  0
233102  1  0
102263  1  0
240103  1  0
103251  1  0
234104  1  6
104279  1  0
243105  1  0
105274  1  0
253106  1  0
106254  1  0
107252  1  0
257107  1  0
260108  1  0
108271  1  0
109277  1  0
285109  1  0
266110  1  0
110309  1  0
278111  1  0
111302  1  0
273112  1  0
112327  1  0
276113  1  1
113322  1  0
283114  1  0
114325  1  0
294115  1  0
115301  1  0
293116  1  0
116312  1  0
117297  1  0
306117  1  6
118299  1  0
307118  1  0
119295  1  0
337119  1  0
120311  1  0
323120  1  6
316121  1  0
121329  1  0
308122  1  0
122342  1  0
334123  1  0
123336  1  0
124321  1  0
124348  1  0
125300  1  0
126344  1  0
126346  1  0
127317  1  0
127363  2  0
339128  1  6
128355  1  0
330129  1  0
129367  1  0
130345  1  0
130363  1  0
356131  1  0
131382  1  0
366132  1  1
132369  1  0
133353  1  0
134357  1  0
135376  1  0
135383  1  0
375136  1  0
136388  1  0
137372  1  0
385138  1  0
138395  1  0
139381  1  0
392140  1  0
140397  1  0
393141  1  1
141403  1  0
142391  1  0
142405  2  0
143399  1  0
143405  1  0
144402  1  0
404145  1  1
146406  1  0
147148  1  0
147152  1  1
148149  1  0
149150  1  0
151153  1  0
153154  1  0
154157  1  6
155156  1  6
155161  1  0
156158  1  0
158162  1  0
159160  1  0
160163  1  6
162164  1  0
163165  1  0
165168  2  0
165169  1  0
166167  1  0
167170  1  6
168173  1  0
169174  2  0
170175  1  0
171172  1  0
172176  1  0
173177  2  0
174177  1  0
175182  2  0
175183  1  0
176179  1  0
178180  1  0
179181  1  0
180184  1  6
181185  1  0
182187  1  0
183188  2  0
184190  1  0
185186  1  0
186189  1  0
187191  2  0
188191  1  0
189192  1  0
190195  2  0
190196  1  0
192194  1  0
193198  1  0
194197  1  0
195200  1  0
196201  2  0
197199  1  0
199203  1  0
200202  2  0
201202  1  0
203206  1  0
204205  1  0
205207  1  6
207208  1  0
208210  1  0
209211  1  0
211212  1  1
212213  1  0
213216  1  0
214217  1  0
219218  1  1
219220  1  0
221222  1  0
221223  1  6
223228  1  0
223229  1  0
224225  1  1
224226  1  0
225227  1  0
227235  1  0
227236  1  0
230231  1  0
230239  1  6
232234  1  0
232247  1  0
232250  1  1
233237  1  6
233246  1  0
234249  1  0
237241  1  0
238242  1  0
238252  1  0
239256  1  0
240245  1  1
240254  1  0
241258  1  0
241259  1  0
242261  1  0
242262  1  0
243244  1  6
243251  1  0
244248  1  0
245264  1  0
245265  1  0
247267  1  0
248269  1  0
248270  1  0
253268  1  6
253271  1  0
255266  1  0
256281  2  0
256282  1  0
257272  1  6
257277  1  0
260263  1  0
260284  1  1
266295  1  6
268286  1  0
272292  1  0
273274  1  0
273289  1  1
275276  1  0
275290  1  0
275298  1  6
276297  1  0
278280  1  1
278299  1  0
279300  1  0
280288  1  0
281304  1  0
282305  2  0
283287  1  6
283301  1  0
285296  1  6
285311  1  0
286328  1  0
287291  1  0
288313  1  0
288314  1  0
289317  1  0
290318  1  0
291319  1  0
291320  1  0
292335  1  0
293302  1  0
293303  1  6
294310  1  1
294312  1  0
296324  1  0
303331  1  0
304315  2  0
305315  1  0
306329  1  0
306332  1  0
307326  1  6
307336  1  0
308309  1  0
308333  1  6
310338  1  0
316325  1  0
316341  1  1
317345  2  0
321322  1  0
321347  1  1
323340  1  0
323344  1  0
324353  1  0
326343  1  0
327330  1  0
330351  1  1
331357  1  0
333352  1  0
334342  1  0
334349  1  1
337354  1  1
337364  1  0
338359  2  0
338360  1  0
339348  1  0
339350  1  0
343368  1  0
346355  1  0
346361  1  1
349372  1  0
350365  1  6
352370  2  0
352371  1  0
354381  1  0
356358  1  1
356369  1  0
358362  1  0
359373  1  0
360374  2  0
362377  1  0
362378  1  0
366380  1  0
366383  1  0
367376  1  0
370386  1  0
371387  2  0
373379  2  0
374379  1  0
375382  1  0
375384  1  6
384391  1  0
385388  1  0
385390  1  6
386389  2  0
387389  1  0
390396  1  0
391399  2  0
392395  1  0
392398  1  1
393394  1  0
393397  1  0
394400  1  0
394401  1  0
396402  1  0
398406  1  0
403404  1  0
404407  1  0
407408  1  0
408409  2  0
408410  1  0
409411  1  0
410412  2  0
411413  2  0
412413  1  0
V    1 0
V    2 1
V    3 2
V    4 3
V    5 4
V    6 5
V    7 6
V    8 7
V    9 8
V   10 9
V   11 10
V   12 11
V   13 12
V   14 13
V   15 14
V   16 15
V   17 16
V   18 17
V   19 18
V   20 19
V   21 20
V   22 21
V   23 22
V   24 23
V   25 24
V   26 25
V   27 26
V   28 27
V   29 28
V   30 29
V   31 30
V   32 31
V   33 32
V   34 33
V   35 34
V   36 35
V   37 36
V   38 37
V   39 38
V   40 39
V   41 40
V   42 41
V   43 42
V   44 43
V   45 44
V   46 45
V   47 46
V   48 47
V   49 48
V   50 49
V   51 50
V   52 51
V   53 52
V   54 53
V   55 54
V   56 55
V   57 56
V   58 57
V   59 58
V   60 59
V   61 60
V   62 61
V   63 62
V   64 63
V   65 64
V   66 65
V   67 66
V   68 67
V   69 68
V   70 69
V   71 70
V   72 71
V   73 72
V   74 73
V   75 74
V   76 75
V   77 76
V   78 77
V   79 78
V   80 79
V   81 80
V   82 81
V   83 82
V   84 83
V   85 84
V   86 85
V   87 86
V   88 87
V   89 88
V   90 89
V   91 90
V   92 91
V   93 92
V   94 93
V   95 94
V   96 95
V   97 96
V   98 97
V   99 98
V  100 99
V  101 100
V  102 101
V  103 102
V  104 103
V  105 104
V  106 105
V  107 106
V  108 107
V  109 108
V  110 109
V  111 110
V  112 111
V  113 112
V  114 113
V  115 114
V  116 115
V  117 116
V  118 117
V  119 118
V  120 119
V  121 120
V  122 121
V  123 122
V  124 123
V  125 124
V  126 125
V  127 126
V  128 127
V  129 128
V  130 129
V  131 130
V  132 131
V  133 132
V  134 133
V  135 134
V  136 135
V  137 136
V  138 137
V  139 138
V  140 139
V  141 140
V  142 141
V  143 142
V  144 143
V  145 144
V  146 145
V  147 146
V  148 147
V  149 148
V  150 149
V  151 150
V  152 151
V  153 152
V  154 153
V  155 154
V  156 155
V  157 156
V  158 157
V  159 158
V  160 159
V  161 160
V  162 161
V  163 162
V  164 163
V  165 164
V  166 165
V  167 166
V  168 167
V  169 168
V  170 169
V  171 170
V  172 171
V  173 172
V  174 173
V  175 174
V  176 175
V  177 176
V  178 177
V  179 178
V  180 179
V  181 180
V  182 181
V  183 182
V  184 183
V  185 184
V  186 185
V  187 186
V  188 187
V  189 188
V  190 189
V  191 190
V  192 191
V  193 192
V  194 193
V  195 194
V  196 195
V  197 196
V  198 197
V  199 198
V  200 199
V  201 200
V  202 201
V  203 202
V  204 203
V  205 204
V  206 205
V  207 206
V  208 207
V  209 208
V  210 209
V  211 210
V  212 211
V  213 212
V  214 213
V  215 214
V  216 215
V  217 216
V  218 217
V  219 218
V  220 219
V  221 220
V  222 221
V  223 222
V  224 223
V  225 224
V  226 225
V  227 226
V  228 227
V  229 228
V  230 229
V  231 230
V  232 231
V  233 232
V  234 233
V  235 234
V  236 235
V  237 236
V  238 237
V  239 238
V  240 239
V  241 240
V  242 241
V  243 242
V  244 243
V  245 244
V  246 245
V  247 246
V  248 247
V  249 248
V  250 249
V  251 250
V  252 251
V  253 252
V  254 253
V  255 254
V  256 255
V  257 256
V  258 257
V  259 258
V  260 259
V  261 260
V  262 261
V  263 262
V  264 263
V  265 264
V  266 265
V  267 266
V  268 267
V  269 268
V  270 269
V  271 270
V  272 271
V  273 272
V  274 273
V  275 274
V  276 275
V  277 276
V  278 277
V  279 278
V  280 279
V  281 280
V  282 281
V  283 282
V  284 283
V  285 284
V  286 285
V  287 286
V  288 287
V  289 288
V  290 289
V  291 290
V  292 291
V  293 292
V  294 293
V  295 294
V  296 295
V  297 296
V  298 297
V  299 298
V  300 299
V  301 300
V  302 301
V  303 302
V  304 303
V  305 304
V  306 305
V  307 306
V  308 307
V  309 308
V  310 309
V  311 310
V  312 311
V  313 312
V  314 313
V  315 314
V  316 315
V  317 316
V  318 317
V  319 318
V  320 319
V  321 320
V  322 321
V  323 322
V  324 323
V  325 324
V  326 325
V  327 326
V  328 327
V  329 328
V  330 329
V  331 330
V  332 331
V  333 332
V  334 333
V  335 334
V  336 335
V  337 336
V  338 337
V  339 338
V  340 339
V  341 340
V  342 341
V  343 342
V  344 343
V  345 344
V  346 345
V  347 346
V  348 347
V  349 348
V  350 349
V  351 350
V  352 351
V  353 352
V  354 353
V  355 354
V  356 355
V  357 356
V  358 357
V  359 358
V  360 359
V  361 360
V  362 361
V  363 362
V  364 363
V  365 364
V  366 365
V  367 366
V  368 367
V  369 368
V  370 369
V  371 370
V  372 371
V  373 372
V  374 373
V  375 374
V  376 375
V  377 376
V  378 377
V  379 378
V  380 379
V  381 380
V  382 381
V  383 382
V  384 383
V  385 384
V  386 385
V  387 386
V  388 387
V  389 388
V  390 389
V  391 390
V  392 391
V  393 392
V  394 393
V  395 394
V  396 395
V  397 396
V  398 397
V  399 398
V  400 399
V  401 400
V  402 401
V  403 402
V  404 403
V  405 404
V  406 405
V  407 406
V  408 407
V  409 408
V  410 409
V  411 410
V  412 411
V  413 412
V  414 515
M  END
