56840904
     RDKit          2D

 29 28  0  0  0  0  0  0  0  0999 V2000
    0.0000    2.4860    0.0000 I   0  0  0  0  0  0  0  0  0  0  0  0
    6.0010    0.6200    0.0000 I   0  0  0  0  0  0  0  0  0  0  0  0
    8.0016    9.1060    0.0000 S   0  0  0  0  0  0  0  0  0  0  0  0
    8.8676    9.6060    0.0000 O   0  0  0  0  0  0  0  0  0  0  0  0
    7.1355    8.6060    0.0000 O   0  0  0  0  0  0  0  0  0  0  0  0
    7.5016    9.9720    0.0000 O   0  0  0  0  0  0  0  0  0  0  0  0
    8.5016    8.2400    0.0000 O   0  0  0  0  0  0  0  0  0  0  0  0
    2.5981    5.9860    0.0000 N   0  0  0  0  0  0  0  0  0  0  0  0
    8.5991    4.1200    0.0000 N   0  0  0  0  0  0  0  0  0  0  0  0
    3.4641    7.4860    0.0000 N   0  0  0  0  0  0  0  0  0  0  0  0
    1.7320    7.4860    0.0000 N   0  0  0  0  0  0  0  0  0  0  0  0
    9.4651    5.6200    0.0000 N   0  0  0  0  0  0  0  0  0  0  0  0
    7.7331    5.6200    0.0000 N   0  0  0  0  0  0  0  0  0  0  0  0
    1.7320    4.4860    0.0000 C   0  0  0  0  0  0  0  0  0  0  0  0
    7.7331    2.6200    0.0000 C   0  0  0  0  0  0  0  0  0  0  0  0
    1.7320    5.4860    0.0000 C   0  0  0  0  0  0  0  0  0  0  0  0
    7.7331    3.6200    0.0000 C   0  0  0  0  0  0  0  0  0  0  0  0
    0.8660    3.9860    0.0000 C   0  0  0  0  0  0  0  0  0  0  0  0
    6.8671    2.1200    0.0000 C   0  0  0  0  0  0  0  0  0  0  0  0
    2.5981    3.9860    0.0000 C   0  0  0  0  0  0  0  0  0  0  0  0
    8.5991    2.1200    0.0000 C   0  0  0  0  0  0  0  0  0  0  0  0
    0.8660    2.9860    0.0000 C   0  0  0  0  0  0  0  0  0  0  0  0
    6.8671    1.1200    0.0000 C   0  0  0  0  0  0  0  0  0  0  0  0
    2.5981    2.9860    0.0000 C   0  0  0  0  0  0  0  0  0  0  0  0
    8.5991    1.1200    0.0000 C   0  0  0  0  0  0  0  0  0  0  0  0
    1.7320    2.4860    0.0000 C   0  0  0  0  0  0  0  0  0  0  0  0
    7.7331    0.6200    0.0000 C   0  0  0  0  0  0  0  0  0  0  0  0
    2.5981    6.9860    0.0000 C   0  0  0  0  0  0  0  0  0  0  0  0
    8.5991    5.1200    0.0000 C   0  0  0  0  0  0  0  0  0  0  0  0
  1 22  1  0
  2 23  1  0
  3  4  1  0
  3  5  1  0
  3  6  2  0
  3  7  2  0
  8 16  1  0
  8 28  2  0
  9 17  1  0
  9 29  2  0
 10 28  1  0
 11 28  1  0
 12 29  1  0
 13 29  1  0
 14 16  1  0
 14 18  2  0
 14 20  1  0
 15 17  1  0
 15 19  2  0
 15 21  1  0
 18 22  1  0
 19 23  1  0
 20 24  2  0
 21 25  2  0
 22 26  2  0
 23 27  2  0
 24 26  1  0
 25 27  1  0
M  ISO  2   1 123   2 123
M  END
