76967078
     RDKit          2D

 30 26  0  0  0  0  0  0  0  0999 V2000
   11.1972    0.7500    0.0000 In  0  0  0  0  0 15  0  0  0  0  0  0
   10.3312    1.2500    0.0000 O   0  0  0  0  0  0  0  0  0  0  0  0
    9.4651   -0.2500    0.0000 O   0  0  0  0  0  0  0  0  0  0  0  0
    2.5369    0.7500    0.0000 O   0  0  0  0  0  0  0  0  0  0  0  0
    6.0010    3.7500    0.0000 O   0  0  0  0  0  0  0  0  0  0  0  0
    4.2690   -2.2500    0.0000 O   0  0  0  0  0  0  0  0  0  0  0  0
    8.5991   -3.7500    0.0000 O   0  0  0  0  0  0  0  0  0  0  0  0
    3.4030    2.2500    0.0000 O   0  0  0  0  0  0  0  0  0  0  0  0
    6.8671    2.2500    0.0000 O   0  0  0  0  0  0  0  0  0  0  0  0
    5.1350   -0.7500    0.0000 O   0  0  0  0  0  0  0  0  0  0  0  0
    6.8671   -3.7500    0.0000 O   0  0  0  0  0  0  0  0  0  0  0  0
    7.7331    0.7500    0.0000 N   0  0  0  0  0  0  0  0  0  0  0  0
    5.1350    1.2500    0.0000 N   0  0  0  0  0  0  0  0  0  0  0  0
    6.8671   -1.7500    0.0000 N   0  0  0  0  0  0  0  0  0  0  0  0
    6.8671    1.2500    0.0000 C   0  0  0  0  0  0  0  0  0  0  0  0
    7.7331   -0.2500    0.0000 C   0  0  0  0  0  0  0  0  0  0  0  0
    6.0010    0.7500    0.0000 C   0  0  0  0  0  0  0  0  0  0  0  0
    6.8671   -0.7500    0.0000 C   0  0  0  0  0  0  0  0  0  0  0  0
    8.5991    1.2500    0.0000 C   0  0  0  0  0  0  0  0  0  0  0  0
    4.2690    0.7500    0.0000 C   0  0  0  0  0  0  0  0  0  0  0  0
    5.1350    2.2500    0.0000 C   0  0  0  0  0  0  0  0  0  0  0  0
    6.0010   -2.2500    0.0000 C   0  0  0  0  0  0  0  0  0  0  0  0
    7.7331   -2.2500    0.0000 C   0  0  0  0  0  0  0  0  0  0  0  0
    9.4651    0.7500    0.0000 C   0  0  0  0  0  0  0  0  0  0  0  0
    3.4030    1.2500    0.0000 C   0  0  0  0  0  0  0  0  0  0  0  0
    6.0010    2.7500    0.0000 C   0  0  0  0  0  0  0  0  0  0  0  0
    5.1350   -1.7500    0.0000 C   0  0  0  0  0  0  0  0  0  0  0  0
    7.7331   -3.2500    0.0000 C   0  0  0  0  0  0  0  0  0  0  0  0
    2.0000    1.0600    0.0000 H   0  0  0  0  0  0  0  0  0  0  0  0
    3.7320   -1.9400    0.0000 H   0  0  0  0  0  0  0  0  0  0  0  0
  2 24  1  0
  3 24  2  0
  4 25  1  0
  5 26  1  0
  6 27  1  0
  7 28  1  0
  8 25  2  0
  9 26  2  0
 10 27  2  0
 11 28  2  0
 12 15  1  0
 12 16  1  0
 12 19  1  0
 13 17  1  0
 13 20  1  0
 13 21  1  0
 14 18  1  0
 14 22  1  0
 14 23  1  0
 15 17  1  0
 16 18  1  0
 19 24  1  0
 20 25  1  0
 21 26  1  0
 22 27  1  0
 23 28  1  0
M  CHG  8   1   3   2  -1   4  -1   5  -1   6  -1   7  -1  29   1  30   1
M  ISO  1   1 111
M  END
