1332-37-2.mol
     RDKit          2D

 44 39  0  0  0  0  0  0  0  0999 V2000
   -0.2062   -1.0717    0.0000 Fe  0  0  0  0  0 15  0  0  0  0  0  0
   -4.7438    2.5006    0.0000 Fe  0  0  0  0  0 15  0  0  0  0  0  0
   -1.4437   -0.3572    0.0000 C   0  0  0  0  0  0  0  0  0  0  0  0
   -2.2687   -0.3572    0.0000 C   0  0  0  0  0  0  0  0  0  0  0  0
   -2.6813   -1.0717    0.0000 O   0  0  0  0  0  0  0  0  0  0  0  0
   -2.6812    0.3572    0.0000 C   0  0  0  0  0  0  0  0  0  0  0  0
   -3.5063    0.3572    0.0000 O   0  0  0  0  0  0  0  0  0  0  0  0
   -2.2687    1.0717    0.0000 C   0  0  0  0  0  0  0  0  0  0  0  0
   -1.4437    1.0717    0.0000 O   0  0  0  0  0  0  0  0  0  0  0  0
   -2.6812    1.7862    0.0000 C   0  0  0  0  0  0  0  0  0  0  0  0
   -2.2687    2.5006    0.0000 O   0  0  0  0  0  0  0  0  0  0  0  0
   -3.5063    1.7862    0.0000 C   0  0  0  0  0  0  0  0  0  0  0  0
   -1.0312    0.3572    0.0000 O   0  0  0  0  0  0  0  0  0  0  0  0
   -1.0312   -1.0717    0.0000 O   0  0  0  0  0  0  0  0  0  0  0  0
   -3.9188    1.0717    0.0000 O   0  0  0  0  0  0  0  0  0  0  0  0
   -3.9188    2.5006    0.0000 O   0  0  0  0  0  0  0  0  0  0  0  0
    1.0313   -0.3572    0.0000 C   0  0  0  0  0  0  0  0  0  0  0  0
    1.4438    0.3572    0.0000 C   0  0  0  0  0  0  0  0  0  0  0  0
    1.0313    1.0717    0.0000 O   0  0  0  0  0  0  0  0  0  0  0  0
    2.2688    0.3572    0.0000 C   0  0  0  0  0  0  0  0  0  0  0  0
    2.6813    1.0717    0.0000 O   0  0  0  0  0  0  0  0  0  0  0  0
    2.6813   -0.3572    0.0000 C   0  0  0  0  0  0  0  0  0  0  0  0
    2.2688   -1.0717    0.0000 O   0  0  0  0  0  0  0  0  0  0  0  0
    3.5063   -0.3572    0.0000 C   0  0  0  0  0  0  0  0  0  0  0  0
    3.9188   -1.0717    0.0000 O   0  0  0  0  0  0  0  0  0  0  0  0
    3.9188    0.3572    0.0000 C   0  0  0  0  0  0  0  0  0  0  0  0
    1.4438   -1.0717    0.0000 O   0  0  0  0  0  0  0  0  0  0  0  0
    0.2063   -0.3572    0.0000 O   0  0  0  0  0  0  0  0  0  0  0  0
    3.5063    1.0717    0.0000 O   0  0  0  0  0  0  0  0  0  0  0  0
    4.7438    0.3572    0.0000 O   0  0  0  0  0  0  0  0  0  0  0  0
    1.0313   -1.7862    0.0000 C   0  0  0  0  0  0  0  0  0  0  0  0
    1.4438   -1.0717    0.0000 C   0  0  0  0  0  0  0  0  0  0  0  0
    1.0313   -0.3572    0.0000 O   0  0  0  0  0  0  0  0  0  0  0  0
    2.2688   -1.0717    0.0000 C   0  0  0  0  0  0  0  0  0  0  0  0
    2.6813   -0.3572    0.0000 O   0  0  0  0  0  0  0  0  0  0  0  0
    2.6813   -1.7862    0.0000 C   0  0  0  0  0  0  0  0  0  0  0  0
    2.2688   -2.5006    0.0000 O   0  0  0  0  0  0  0  0  0  0  0  0
    3.5063   -1.7862    0.0000 C   0  0  0  0  0  0  0  0  0  0  0  0
    3.9188   -2.5006    0.0000 O   0  0  0  0  0  0  0  0  0  0  0  0
    3.9188   -1.0717    0.0000 C   0  0  0  0  0  0  0  0  0  0  0  0
    1.4438   -2.5006    0.0000 O   0  0  0  0  0  0  0  0  0  0  0  0
    0.2063   -1.7862    0.0000 O   0  0  0  0  0  0  0  0  0  0  0  0
    3.5063   -0.3572    0.0000 O   0  0  0  0  0  0  0  0  0  0  0  0
    4.7438   -1.0717    0.0000 O   0  0  0  0  0  0  0  0  0  0  0  0
  3  4  1  0
  4  5  1  6
  4  6  1  0
  6  7  1  1
  6  8  1  0
  8  9  1  1
  8 10  1  0
 10 11  1  1
 10 12  1  0
  3 13  2  0
  3 14  1  0
 12 15  2  0
 12 16  1  0
 17 18  1  0
 18 19  1  6
 18 20  1  0
 20 21  1  1
 20 22  1  0
 22 23  1  1
 22 24  1  0
 24 25  1  1
 24 26  1  0
 17 27  2  0
 17 28  1  0
 26 29  2  0
 26 30  1  0
 31 32  1  0
 32 33  1  6
 32 34  1  0
 34 35  1  1
 34 36  1  0
 36 37  1  1
 36 38  1  0
 38 39  1  1
 38 40  1  0
 31 41  2  0
 31 42  1  0
 40 43  2  0
 40 44  1  0
M  CHG  8   1   3   2   3  14  -1  16  -1  28  -1  30  -1  42  -1  44  -1
M  END
