 
     RDKit          2D

 62 67  0  0  1  0  0  0  0  0999 V2000
   26.1816  -17.5899    0.0000 C   0  0  0  0  0  0  0  0  0  0  0  0
   26.1641  -18.9900    0.0000 C   0  0  0  0  0  0  0  0  0  0  0  0
   24.9807  -16.8809    0.0000 C   0  0  0  0  0  0  0  0  0  0  0  0
   27.4061  -16.9103    0.0000 C   0  0  0  0  0  0  0  0  0  0  0  0
   24.9515  -19.6756    0.0000 C   0  0  0  0  0  0  0  0  0  0  0  0
   27.3652  -19.7048    0.0000 C   0  0  0  0  0  0  0  0  0  0  0  0
   26.1465  -20.3845    0.0000 O   0  0  0  0  0  0  0  0  0  0  0  0
   23.7621  -17.5665    0.0000 C   0  0  0  0  0  0  0  0  0  0  0  0
   28.6013  -17.6251    0.0000 C   0  0  0  0  0  0  0  0  0  0  0  0
   27.4236  -15.5100    0.0000 N   0  0  0  0  0  0  0  0  0  0  0  0
   23.7504  -18.9666    0.0000 C   0  0  0  0  0  0  0  0  0  0  0  0
   24.9455  -21.0816    0.0000 O   0  0  0  0  0  0  0  0  0  0  0  0
   28.6538  -19.0252    0.0000 C   0  0  0  0  0  0  0  0  0  0  0  0
   27.3418  -21.1050    0.0000 O   0  0  0  0  0  0  0  0  0  0  0  0
   22.5493  -16.8634    0.0000 C   0  0  0  0  0  0  0  0  0  0  0  0
   29.8258  -16.9455    0.0000 O   0  0  0  0  0  0  0  0  0  0  0  0
   28.6481  -14.8247    0.0000 C   0  0  0  0  0  0  0  0  0  0  0  0
   26.2226  -14.7894    0.0000 C   0  0  0  0  0  0  0  0  0  0  0  0
   22.5376  -19.6639    0.0000 C   0  0  0  0  0  0  0  0  0  0  0  0
   29.7847  -19.7401    0.0000 C   0  0  0  0  0  0  0  0  0  0  0  0
   21.3366  -17.5605    0.0000 C   0  0  0  0  0  0  0  0  0  0  0  0
   22.5551  -15.4632    0.0000 C   0  0  0  0  0  0  0  0  0  0  0  0
   21.3306  -18.9608    0.0000 C   0  0  0  0  0  0  0  0  0  0  0  0
   22.5376  -21.0700    0.0000 O   0  0  0  0  0  0  0  0  0  0  0  0
   31.0092  -19.0605    0.0000 N   0  0  0  0  0  0  0  0  0  0  0  0
   29.7672  -21.1461    0.0000 O   0  0  0  0  0  0  0  0  0  0  0  0
   20.1239  -16.8575    0.0000 C   0  0  0  0  0  0  0  0  0  0  0  0
   20.1239  -19.6639    0.0000 C   0  0  0  0  0  0  0  0  0  0  0  0
   18.9053  -17.5605    0.0000 C   0  0  0  0  0  0  0  0  0  0  0  0
   18.9053  -18.9608    0.0000 C   0  0  0  0  0  0  0  0  0  0  0  0
   21.3365  -16.1632    0.0000 O   0  0  0  0  0  0  0  0  0  0  0  0
   20.1239  -21.0639    0.0000 O   0  0  0  0  0  0  0  0  0  0  0  0
   33.8800  -17.3600    0.0000 Cl  0  0  0  0  0  0  0  0  0  0  0  0
   29.2845  -16.8454    0.0000 C   0  0  0  0  0  0  0  0  0  0  0  0
   29.2784  -18.2246    0.0000 C   0  0  0  0  0  0  0  0  0  0  0  0
   30.4784  -16.1589    0.0000 C   0  0  0  0  0  0  0  0  0  0  0  0
   28.0785  -16.1650    0.0000 C   0  0  0  0  0  0  0  0  0  0  0  0
   29.2723  -15.4970    0.0000 C   0  0  0  0  0  0  0  0  0  0  0  0
   28.0848  -18.9235    0.0000 C   0  0  0  0  0  0  0  0  0  0  0  0
   31.6349  -18.1731    0.0000 C   0  0  0  0  0  0  0  0  0  0  0  0
   31.6410  -16.8330    0.0000 C   0  0  0  0  0  0  0  0  0  0  0  0
   30.4845  -14.8105    0.0000 C   0  0  0  0  0  0  0  0  0  0  0  0
   31.7443  -15.7389    0.0000 O   0  0  0  0  0  0  0  0  0  0  0  0
   26.9219  -16.7898    0.0000 C   0  0  0  0  0  0  0  0  0  0  0  0
   26.9406  -18.0576    0.0000 C   0  0  0  0  0  0  0  0  0  0  0  0
   28.0909  -20.2966    0.0000 C   0  0  0  0  0  0  0  0  0  0  0  0
   31.7895  -14.0498    0.0000 C   0  0  0  0  0  0  0  0  0  0  0  0
   29.3216  -14.1364    0.0000 O   0  0  0  0  0  0  0  0  0  0  0  0
   25.7160  -16.1960    0.0000 O   0  0  0  0  0  0  0  0  0  0  0  0
   25.7160  -18.9298    0.0000 C   0  0  0  0  0  0  0  0  0  0  0  0
   26.9035  -20.9706    0.0000 C   0  0  0  0  0  0  0  0  0  0  0  0
   33.1255  -14.8786    0.0000 O   0  0  0  0  0  0  0  0  0  0  0  0
   25.7160  -20.2903    0.0000 C   0  0  0  0  0  0  0  0  0  0  0  0
   24.5346  -18.2555    0.0000 C   0  0  0  0  0  0  0  0  0  0  0  0
   25.7407  -17.5380    0.0000 C   0  0  0  0  0  0  0  0  0  0  0  0
   34.3501  -14.3158    0.0000 C   0  0  0  0  0  0  0  0  0  0  0  0
   24.5346  -20.9769    0.0000 C   0  0  0  0  0  0  0  0  0  0  0  0
   23.3719  -18.9298    0.0000 C   0  0  0  0  0  0  0  0  0  0  0  0
   35.5006  -14.7920    0.0000 C   0  0  0  0  0  0  0  0  0  0  0  0
   34.3748  -12.9056    0.0000 O   0  0  0  0  0  0  0  0  0  0  0  0
   23.3719  -20.2903    0.0000 C   0  0  0  0  0  0  0  0  0  0  0  0
   22.2029  -20.9583    0.0000 O   0  0  0  0  0  0  0  0  0  0  0  0
  1  2  1  0
  1  3  1  1
  1  4  1  0
  2  5  1  0
  2  6  1  0
  2  7  1  6
  8  3  1  1
  4  9  1  0
  4 10  1  6
  5 11  2  0
  5 12  1  0
  6 13  1  0
  6 14  2  0
  8 15  1  0
  9 16  1  0
 10 17  1  0
 10 18  1  0
 11 19  1  0
 13 20  1  0
 15 21  1  0
 15 22  1  6
 19 23  1  0
 19 24  2  0
 20 25  1  0
 20 26  2  0
 21 27  2  0
 23 28  2  0
 27 29  1  0
 28 30  1  0
  8 11  1  0
  9 13  2  0
 21 23  1  0
 29 30  2  0
 15 31  1  0
 28 32  1  0
 34 35  1  0
 34 36  1  0
 34 37  1  0
 34 38  1  1
 35 39  1  0
 35 40  1  1
 36 41  1  0
 36 42  1  0
 36 43  1  6
 37 44  1  0
 39 45  1  0
 39 46  1  6
 42 47  1  0
 42 48  2  0
 44 49  1  1
 45 50  1  0
 46 51  1  0
 47 52  1  0
 50 53  1  0
 50 54  1  0
 50 55  1  1
 52 56  1  0
 53 57  2  0
 54 58  1  0
 56 59  1  0
 56 60  2  0
 57 61  1  0
 61 62  2  0
 40 41  1  0
 45 44  1  1
 51 53  1  0
 58 61  1  0
M  END
