 
     RDKit          2D

 46 49  0  0  1  0  0  0  0  0999 V2000
   21.4200  -17.2900    0.0000 C   0  0  0  0  0  0  0  0  0  0  0  0
   21.4200  -18.6900    0.0000 C   0  0  0  0  0  0  0  0  0  0  0  0
   20.2300  -16.5900    0.0000 C   0  0  0  0  0  0  0  0  0  0  0  0
   22.6800  -16.5900    0.0000 C   0  0  0  0  0  0  0  0  0  0  0  0
   22.6100  -19.3900    0.0000 C   0  0  0  0  0  0  0  0  0  0  0  0
   20.2300  -19.3900    0.0000 O   0  0  0  0  0  0  0  0  0  0  0  0
   20.2300  -15.1900    0.0000 C   0  0  0  0  0  0  0  0  0  0  0  0
   22.6800  -15.1900    0.0000 C   0  0  0  0  0  0  0  0  0  0  0  0
   23.8700  -18.6900    0.0000 N   0  0  0  0  0  0  0  0  0  0  0  0
   22.6100  -20.7900    0.0000 C   0  0  0  0  0  0  0  0  0  0  0  0
   21.4200  -14.4900    0.0000 C   0  0  0  0  0  0  0  0  0  0  0  0
   25.0600  -19.3900    0.0000 C   0  0  0  0  0  0  0  0  0  0  0  0
   21.4200  -21.4900    0.0000 O   0  0  0  0  0  0  0  0  0  0  0  0
   21.4200  -13.0900    0.0000 N   0  0  0  0  0  0  0  0  0  0  0  0
   26.2500  -18.6900    0.0000 C   0  0  0  0  0  0  0  0  0  0  0  0
   25.0600  -20.7900    0.0000 O   0  0  0  0  0  0  0  0  0  0  0  0
   20.2300  -12.3900    0.0000 O   0  0  0  0  0  0  0  0  0  0  0  0
   22.6100  -12.3900    0.0000 O   0  0  0  0  0  0  0  0  0  0  0  0
   27.5100  -19.3900    0.0000 Cl  0  0  0  0  0  0  0  0  0  0  0  0
   26.2500  -17.2900    0.0000 Cl  0  0  0  0  0  0  0  0  0  0  0  0
    5.9500  -12.1800    0.0000 C   0  0  0  0  0  0  0  0  0  0  0  0
    5.9500  -13.5800    0.0000 C   0  0  0  0  0  0  0  0  0  0  0  0
    7.1624  -14.2800    0.0000 C   0  0  0  0  0  0  0  0  0  0  0  0
    8.3749  -13.5800    0.0000 C   0  0  0  0  0  0  0  0  0  0  0  0
    8.3749  -12.1800    0.0000 C   0  0  0  0  0  0  0  0  0  0  0  0
    7.1624  -11.4800    0.0000 C   0  0  0  0  0  0  0  0  0  0  0  0
    9.5873  -14.2800    0.0000 C   0  0  0  0  0  0  0  0  0  0  0  0
   10.7997  -13.5800    0.0000 C   0  0  0  0  0  0  0  0  0  0  0  0
   10.7997  -12.1800    0.0000 C   0  0  0  0  0  0  0  0  0  0  0  0
    9.5873  -11.4800    0.0000 C   0  0  0  0  0  0  0  0  0  0  0  0
   12.0122  -11.4800    0.0000 C   0  0  0  0  0  0  0  0  0  0  0  0
   12.0122  -10.0800    0.0000 C   0  0  0  0  0  0  0  0  0  0  0  0
   10.7997   -9.3800    0.0000 C   0  0  0  0  0  0  0  0  0  0  0  0
    9.5873  -10.0800    0.0000 C   0  0  0  0  0  0  0  0  0  0  0  0
   14.4370  -11.4800    0.0000 C   0  0  0  0  0  0  0  0  0  0  0  0
   14.4370  -10.0800    0.0000 C   0  0  0  0  0  0  0  0  0  0  0  0
   13.2246   -9.3800    0.0000 C   0  0  0  0  0  0  0  0  0  0  0  0
    4.7376  -14.2800    0.0000 O   0  0  0  0  0  0  0  0  0  0  0  0
    8.3749  -10.7800    0.0000 C   0  0  0  0  0  0  0  0  0  0  0  0
    8.3769   -9.3812    0.0000 O   0  0  0  0  0  0  0  0  0  0  0  0
   12.0122   -8.6800    0.0000 C   0  0  0  0  0  0  0  0  0  0  0  0
   13.2246   -7.7700    0.0000 C   0  0  0  0  0  0  0  0  0  0  0  0
   14.4370   -8.6800    0.0000 O   0  0  0  0  0  0  0  0  0  0  0  0
   14.4411   -7.0677    0.0000 C   0  0  0  0  0  0  0  0  0  0  0  0
   12.0162   -7.0723    0.0000 O   0  0  0  0  0  0  0  0  0  0  0  0
   15.6386   -7.7592    0.0000 O   0  0  0  0  0  0  0  0  0  0  0  0
  1  2  1  0
  1  3  2  0
  1  4  1  0
  2  5  1  0
  2  6  1  6
  3  7  1  0
  4  8  2  0
  5  9  1  0
  5 10  1  6
  7 11  2  0
  9 12  1  0
 10 13  1  0
 11 14  1  0
 12 15  1  0
 12 16  2  0
 14 17  2  0
 14 18  1  0
 15 19  1  0
 15 20  1  0
  8 11  1  0
 21 22  1  0
 22 23  1  0
 23 24  2  0
 24 25  1  0
 25 26  1  0
 21 26  2  0
 24 27  1  0
 27 28  1  0
 29 28  1  6
 29 30  1  0
 25 30  1  0
 29 31  1  0
 31 32  1  0
 32 33  1  0
 33 34  1  0
 30 34  1  1
 31 35  1  1
 35 36  1  0
 36 37  1  0
 32 37  1  0
 22 38  2  0
 25 39  1  1
 34 40  1  1
 32 41  1  1
 37 42  1  0
 37 43  1  6
 42 44  1  0
 42 45  2  0
 44 46  1  0
M  CHG  2  14   1  18  -1
M  END
