 
     RDKit          2D

 27 28  0  0  1  0  0  0  0  0999 V2000
   18.4041  -16.3779    0.0000 C   0  0  0  0  0  0  0  0  0  0  0  0
   18.4041  -17.7775    0.0000 C   0  0  0  0  0  0  0  0  0  0  0  0
   19.7352  -18.2099    0.0000 C   0  0  0  0  0  0  0  0  0  0  0  0
   20.5579  -17.0777    0.0000 C   0  0  0  0  0  0  0  0  0  0  0  0
   19.7352  -15.9454    0.0000 C   0  0  0  0  0  0  0  0  0  0  0  0
   17.1921  -15.6781    0.0000 C   0  0  0  0  0  0  0  0  0  0  0  0
   15.9800  -16.3779    0.0000 C   0  0  0  0  0  0  0  0  0  0  0  0
   17.1921  -18.4772    0.0000 O   0  0  0  0  0  0  0  0  0  0  0  0
   21.9575  -17.0777    0.0000 O   0  0  0  0  0  0  0  0  0  0  0  0
   22.6611  -15.8588    0.0000 C   0  0  0  0  0  0  0  0  0  0  0  0
   21.9767  -14.6739    0.0000 C   0  0  0  0  0  0  0  0  0  0  0  0
   20.5737  -14.6741    0.0000 C   0  0  0  0  0  0  0  0  0  0  0  0
   14.7492  -15.6671    0.0000 C   0  0  0  0  0  0  0  0  0  0  0  0
   13.5444  -16.3625    0.0000 C   0  0  0  0  0  0  0  0  0  0  0  0
   12.3624  -15.6799    0.0000 C   0  0  0  0  0  0  0  0  0  0  0  0
   11.1688  -16.3691    0.0000 C   0  0  0  0  0  0  0  0  0  0  0  0
    9.9813  -15.6833    0.0000 C   0  0  0  0  0  0  0  0  0  0  0  0
    8.7905  -16.3708    0.0000 O   0  0  0  0  0  0  0  0  0  0  0  0
    9.9813  -14.2787    0.0000 O   0  0  0  0  0  0  0  0  0  0  0  0
   23.6507  -16.8484    0.0000 O   0  0  0  0  0  0  0  0  0  0  0  0
   23.6507  -14.8692    0.0000 C   0  0  0  0  0  0  0  0  0  0  0  0
   24.8628  -15.5690    0.0000 C   0  0  0  0  0  0  0  0  0  0  0  0
   26.0749  -14.8692    0.0000 C   0  0  0  0  0  0  0  0  0  0  0  0
   27.2870  -15.5690    0.0000 C   0  0  0  0  0  0  0  0  0  0  0  0
   28.4990  -14.8692    0.0000 C   0  0  0  0  0  0  0  0  0  0  0  0
   24.6404  -13.8795    0.0000 F   0  0  0  0  0  0  0  0  0  0  0  0
   22.6611  -13.8795    0.0000 F   0  0  0  0  0  0  0  0  0  0  0  0
  1  2  1  0
  2  3  1  0
  4  3  1  6
  4  5  1  0
  1  5  1  0
  1  6  1  6
  6  7  1  0
  2  8  2  0
  4  9  1  0
  9 10  1  0
 10 11  1  0
 11 12  1  0
  5 12  1  1
  7 13  1  0
 13 14  1  0
 14 15  1  0
 15 16  1  0
 16 17  1  0
 17 18  1  0
 17 19  2  0
 10 20  1  1
 10 21  1  0
 21 22  1  0
 22 23  1  0
 23 24  1  0
 24 25  1  0
 21 26  1  0
 21 27  1  0
M  END
