 
     RDKit          2D

 11  6  0  0  0  0  0  0  0  0999 V2000
   26.7400  -17.2900    0.0000 I   0  0  0  0  0  0  0  0  0  0  0  0
   28.1400  -17.2900    0.0000 I   0  0  0  0  0  0  0  0  0  0  0  0
   22.5297  -16.1700    0.0000 K   0  0  0  0  0 15  0  0  0  0  0  0
   23.9503  -16.1700    0.0000 I   0  0  0  0  0  0  0  0  0  0  0  0
   22.1200  -15.8397    0.0000 C   0  0  0  0  0  0  0  0  0  0  0  0
   20.9088  -16.5419    0.0000 C   0  0  0  0  0  0  0  0  0  0  0  0
   23.3312  -16.5419    0.0000 O   0  0  0  0  0  0  0  0  0  0  0  0
   32.0604  -17.5003    0.0000 C   0  0  0  0  0  0  0  0  0  0  0  0
   30.8486  -18.2029    0.0000 C   0  0  0  0  0  0  0  0  0  0  0  0
   32.0604  -16.1016    0.0000 C   0  0  0  0  0  0  0  0  0  0  0  0
   33.2721  -18.2029    0.0000 O   0  0  0  0  0  0  0  0  0  0  0  0
  1  2  1  0
  5  6  1  0
  5  7  1  0
  8  9  1  0
  8 10  1  0
  8 11  1  0
M  CHG  2   3   1   4  -1
M  END
