 
     RDKit          2D

 99 93  0  0  0  0  0  0  0  0999 V2000
   20.6329  -17.3424    0.0000 C   0  0  0  0  0  0  0  0  0  0  0  0
   21.8450  -18.0357    0.0000 C   0  0  0  0  0  0  0  0  0  0  0  0
   20.6329  -15.9380    0.0000 C   0  0  0  0  0  0  0  0  0  0  0  0
   19.4209  -18.0416    0.0000 C   0  0  0  0  0  0  0  0  0  0  0  0
   23.0569  -17.3424    0.0000 O   0  0  0  0  0  0  0  0  0  0  0  0
   21.8450  -19.4401    0.0000 O   0  0  0  0  0  0  0  0  0  0  0  0
   19.4209  -15.2330    0.0000 C   0  0  0  0  0  0  0  0  0  0  0  0
   18.2148  -17.3481    0.0000 C   0  0  0  0  0  0  0  0  0  0  0  0
   24.2688  -18.0299    0.0000 C   0  0  0  0  0  0  0  0  0  0  0  0
   18.2089  -15.9380    0.0000 C   0  0  0  0  0  0  0  0  0  0  0  0
   25.4808  -17.3365    0.0000 C   0  0  0  0  0  0  0  0  0  0  0  0
   16.9911  -15.2388    0.0000 N   0  0  0  0  0  0  0  0  0  0  0  0
   25.5966  -17.9141    0.0000 C   0  0  0  0  0  0  0  0  0  0  0  0
   26.8041  -18.6141    0.0000 C   0  0  0  0  0  0  0  0  0  0  0  0
   25.5966  -16.5083    0.0000 C   0  0  0  0  0  0  0  0  0  0  0  0
   24.3891  -18.6141    0.0000 C   0  0  0  0  0  0  0  0  0  0  0  0
   28.0117  -17.9200    0.0000 O   0  0  0  0  0  0  0  0  0  0  0  0
   26.7925  -20.0199    0.0000 O   0  0  0  0  0  0  0  0  0  0  0  0
   24.3891  -15.8140    0.0000 C   0  0  0  0  0  0  0  0  0  0  0  0
   23.1699  -17.9141    0.0000 C   0  0  0  0  0  0  0  0  0  0  0  0
   29.2249  -18.6258    0.0000 C   0  0  0  0  0  0  0  0  0  0  0  0
   23.1699  -16.5083    0.0000 C   0  0  0  0  0  0  0  0  0  0  0  0
   30.4384  -17.9257    0.0000 C   0  0  0  0  0  0  0  0  0  0  0  0
   21.9566  -15.8140    0.0000 N   0  0  0  0  0  0  0  0  0  0  0  0
   31.6517  -18.6315    0.0000 N   0  0  0  0  0  0  0  0  0  0  0  0
   20.7491  -16.5083    0.0000 C   0  0  0  0  0  0  0  0  0  0  0  0
   32.8649  -17.9257    0.0000 C   0  0  0  0  0  0  0  0  0  0  0  0
   31.6457  -20.0315    0.0000 C   0  0  0  0  0  0  0  0  0  0  0  0
   19.5356  -15.8140    0.0000 C   0  0  0  0  0  0  0  0  0  0  0  0
   18.3224  -16.5083    0.0000 C   0  0  0  0  0  0  0  0  0  0  0  0
   17.1090  -15.8140    0.0000 C   0  0  0  0  0  0  0  0  0  0  0  0
   31.6373  -15.9623    0.0000 Cl  0  0  0  0  0  0  0  0  0  0  0  0
   22.7901  -15.3180    0.0000 C   0  0  0  0  0  0  0  0  0  0  0  0
   22.7901  -16.7282    0.0000 C   0  0  0  0  0  0  0  0  0  0  0  0
   24.0113  -17.4333    0.0000 C   0  0  0  0  0  0  0  0  0  0  0  0
   25.2326  -16.7282    0.0000 C   0  0  0  0  0  0  0  0  0  0  0  0
   25.2326  -15.3180    0.0000 C   0  0  0  0  0  0  0  0  0  0  0  0
   24.0113  -14.6130    0.0000 C   0  0  0  0  0  0  0  0  0  0  0  0
   26.4538  -17.4333    0.0000 N   0  0  0  0  0  0  0  0  0  0  0  0
   27.6750  -16.7282    0.0000 C   0  0  0  0  0  0  0  0  0  0  0  0
   27.6750  -15.3180    0.0000 C   0  0  0  0  0  0  0  0  0  0  0  0
   26.4538  -14.6130    0.0000 C   0  0  0  0  0  0  0  0  0  0  0  0
   28.8813  -17.4247    0.0000 O   0  0  0  0  0  0  0  0  0  0  0  0
   26.4538  -13.2028    0.0000 C   0  0  0  0  0  0  0  0  0  0  0  0
   27.6772  -12.4965    0.0000 N   0  0  0  0  0  0  0  0  0  0  0  0
   28.8823  -13.1925    0.0000 C   0  0  0  0  0  0  0  0  0  0  0  0
   30.0778  -12.5023    0.0000 C   0  0  0  0  0  0  0  0  0  0  0  0
   31.2779  -13.1955    0.0000 N   0  0  0  0  0  0  0  0  0  0  0  0
   25.2347  -12.4989    0.0000 O   0  0  0  0  0  0  0  0  0  0  0  0
   32.4759  -12.5039    0.0000 C   0  0  0  0  0  0  0  0  0  0  0  0
   31.2779  -14.6127    0.0000 C   0  0  0  0  0  0  0  0  0  0  0  0
   32.4790  -15.3064    0.0000 C   0  0  0  0  0  0  0  0  0  0  0  0
   33.6748  -13.1962    0.0000 C   0  0  0  0  0  0  0  0  0  0  0  0
   30.0783  -16.7337    0.0000 C   0  0  0  0  0  0  0  0  0  0  0  0
   31.2777  -17.4263    0.0000 C   0  0  0  0  0  0  0  0  0  0  0  0
   32.4759  -16.7345    0.0000 C   0  0  0  0  0  0  0  0  0  0  0  0
   33.6747  -17.4267    0.0000 C   0  0  0  0  0  0  0  0  0  0  0  0
   36.8900  -15.3300    0.0000 Cl  0  0  0  0  0  0  0  0  0  0  0  0
   14.7000  -16.1000    0.0000 C   0  0  0  0  0  0  0  0  0  0  0  0
   13.5800  -15.4000    0.0000 C   0  0  0  0  0  0  0  0  0  0  0  0
   14.7000  -17.4300    0.0000 C   0  0  0  0  0  0  0  0  0  0  0  0
   15.8900  -15.4000    0.0000 S   0  0  0  0  0  0  0  0  0  0  0  0
   12.3900  -16.1000    0.0000 C   0  0  0  0  0  0  0  0  0  0  0  0
   13.5800  -18.0600    0.0000 C   0  0  0  0  0  0  0  0  0  0  0  0
   15.0500  -14.0700    0.0000 O   0  0  0  0  0  0  0  0  0  0  0  0
   17.2200  -14.7000    0.0000 O   0  0  0  0  0  0  0  0  0  0  0  0
   16.7300  -16.8700    0.0000 N   0  0  0  0  0  0  0  0  0  0  0  0
   12.3900  -17.4300    0.0000 C   0  0  0  0  0  0  0  0  0  0  0  0
   11.2700  -18.0600    0.0000 C   0  0  0  0  0  0  0  0  0  0  0  0
   10.0800  -17.4300    0.0000 N   0  0  0  0  0  0  0  0  0  0  0  0
   22.3300  -18.2000    0.0000 Cl  0  0  0  0  0  0  0  0  0  0  0  0
   27.4400  -18.1300    0.0000 O   0  0  0  0  0  0  0  0  0  0  0  0
   14.7000  -16.1000    0.0000 C   0  0  0  0  0  0  0  0  0  0  0  0
   13.5800  -15.4000    0.0000 C   0  0  0  0  0  0  0  0  0  0  0  0
   12.3900  -16.1000    0.0000 C   0  0  0  0  0  0  0  0  0  0  0  0
   12.3900  -17.4300    0.0000 C   0  0  0  0  0  0  0  0  0  0  0  0
   11.2700  -18.0600    0.0000 C   0  0  0  0  0  0  0  0  0  0  0  0
   10.0800  -17.4300    0.0000 N   0  0  0  0  0  0  0  0  0  0  0  0
   13.5800  -18.0600    0.0000 C   0  0  0  0  0  0  0  0  0  0  0  0
   14.7000  -17.4300    0.0000 C   0  0  0  0  0  0  0  0  0  0  0  0
   15.8900  -15.4000    0.0000 S   0  0  0  0  0  0  0  0  0  0  0  0
   15.0500  -14.0700    0.0000 O   0  0  0  0  0  0  0  0  0  0  0  0
   17.2200  -14.7000    0.0000 O   0  0  0  0  0  0  0  0  0  0  0  0
   16.7300  -16.8700    0.0000 N   0  0  0  0  0  0  0  0  0  0  0  0
   14.7000  -16.1000    0.0000 C   0  0  0  0  0  0  0  0  0  0  0  0
   13.5800  -15.4000    0.0000 C   0  0  0  0  0  0  0  0  0  0  0  0
   12.3900  -16.1000    0.0000 C   0  0  0  0  0  0  0  0  0  0  0  0
   12.3900  -17.4300    0.0000 C   0  0  0  0  0  0  0  0  0  0  0  0
   11.2700  -18.0600    0.0000 C   0  0  0  0  0  0  0  0  0  0  0  0
   10.0800  -17.4300    0.0000 N   0  0  0  0  0  0  0  0  0  0  0  0
   13.5800  -18.0600    0.0000 C   0  0  0  0  0  0  0  0  0  0  0  0
   14.7000  -17.4300    0.0000 C   0  0  0  0  0  0  0  0  0  0  0  0
   15.8900  -15.4000    0.0000 S   0  0  0  0  0  0  0  0  0  0  0  0
   15.0500  -14.0700    0.0000 O   0  0  0  0  0  0  0  0  0  0  0  0
   17.2200  -14.7000    0.0000 O   0  0  0  0  0  0  0  0  0  0  0  0
   16.7300  -16.8700    0.0000 N   0  0  0  0  0  0  0  0  0  0  0  0
   22.3300  -18.2000    0.0000 Cl  0  0  0  0  0  0  0  0  0  0  0  0
   22.3300  -18.2000    0.0000 Cl  0  0  0  0  0  0  0  0  0  0  0  0
   27.4400  -18.1300    0.0000 O   0  0  0  0  0  0  0  0  0  0  0  0
  1  2  1  0
  1  3  2  0
  1  4  1  0
  2  5  1  0
  2  6  2  0
  3  7  1  0
  4  8  2  0
  5  9  1  0
  7 10  2  0
  9 11  1  0
 10 12  1  0
  8 10  1  0
 13 14  1  0
 13 15  2  0
 13 16  1  0
 14 17  1  0
 14 18  2  0
 15 19  1  0
 16 20  2  0
 17 21  1  0
 19 22  2  0
 21 23  1  0
 22 24  1  0
 23 25  1  0
 24 26  1  0
 25 27  1  0
 25 28  1  0
 26 29  1  0
 29 30  1  0
 30 31  1  0
 20 22  1  0
 33 34  2  0
 34 35  1  0
 35 36  2  0
 36 37  1  0
 37 38  2  0
 33 38  1  0
 36 39  1  0
 39 40  2  0
 40 41  1  0
 41 42  2  0
 37 42  1  0
 40 43  1  0
 42 44  1  0
 44 45  1  0
 45 46  1  0
 46 47  1  0
 47 48  1  0
 44 49  2  0
 48 50  1  0
 48 51  1  0
 51 52  1  0
 50 53  1  0
 43 54  1  0
 54 55  1  0
 55 56  1  0
 56 57  1  0
 59 60  2  0
 59 61  1  0
 59 62  1  0
 60 63  1  0
 61 64  2  0
 62 65  2  0
 62 66  2  0
 62 67  1  0
 63 68  2  0
 68 69  1  0
 69 70  1  0
 64 68  1  0
 73 74  2  0
 73 80  1  0
 73 81  1  0
 74 75  1  0
 80 79  2  0
 81 82  2  0
 81 83  2  0
 81 84  1  0
 75 76  2  0
 76 77  1  0
 77 78  1  0
 79 76  1  0
 85 86  2  0
 85 92  1  0
 85 93  1  0
 86 87  1  0
 92 91  2  0
 93 94  2  0
 93 95  2  0
 93 96  1  0
 87 88  2  0
 88 89  1  0
 89 90  1  0
 91 88  1  0
M  END
