 
     RDKit          2D

 61 66  0  0  1  0  0  0  0  0999 V2000
   26.1816  -17.5899    0.0000 C   0  0  0  0  0  0  0  0  0  0  0  0
   26.1641  -18.9900    0.0000 C   0  0  0  0  0  0  0  0  0  0  0  0
   24.9807  -16.8809    0.0000 C   0  0  0  0  0  0  0  0  0  0  0  0
   27.4061  -16.9103    0.0000 C   0  0  0  0  0  0  0  0  0  0  0  0
   24.9515  -19.6756    0.0000 C   0  0  0  0  0  0  0  0  0  0  0  0
   27.3652  -19.7048    0.0000 C   0  0  0  0  0  0  0  0  0  0  0  0
   26.1465  -20.3845    0.0000 O   0  0  0  0  0  0  0  0  0  0  0  0
   23.7621  -17.5665    0.0000 C   0  0  0  0  0  0  0  0  0  0  0  0
   28.6013  -17.6251    0.0000 C   0  0  0  0  0  0  0  0  0  0  0  0
   27.4236  -15.5100    0.0000 N   0  0  0  0  0  0  0  0  0  0  0  0
   23.7504  -18.9666    0.0000 C   0  0  0  0  0  0  0  0  0  0  0  0
   24.9455  -21.0816    0.0000 O   0  0  0  0  0  0  0  0  0  0  0  0
   28.6538  -19.0252    0.0000 C   0  0  0  0  0  0  0  0  0  0  0  0
   27.3418  -21.1050    0.0000 O   0  0  0  0  0  0  0  0  0  0  0  0
   22.5493  -16.8634    0.0000 C   0  0  0  0  0  0  0  0  0  0  0  0
   29.8258  -16.9455    0.0000 O   0  0  0  0  0  0  0  0  0  0  0  0
   28.6481  -14.8247    0.0000 C   0  0  0  0  0  0  0  0  0  0  0  0
   26.2226  -14.7894    0.0000 C   0  0  0  0  0  0  0  0  0  0  0  0
   22.5376  -19.6639    0.0000 C   0  0  0  0  0  0  0  0  0  0  0  0
   29.7847  -19.7401    0.0000 C   0  0  0  0  0  0  0  0  0  0  0  0
   21.3366  -17.5605    0.0000 C   0  0  0  0  0  0  0  0  0  0  0  0
   22.5551  -15.4632    0.0000 C   0  0  0  0  0  0  0  0  0  0  0  0
   21.3306  -18.9608    0.0000 C   0  0  0  0  0  0  0  0  0  0  0  0
   22.5376  -21.0700    0.0000 O   0  0  0  0  0  0  0  0  0  0  0  0
   31.0092  -19.0605    0.0000 N   0  0  0  0  0  0  0  0  0  0  0  0
   29.7672  -21.1461    0.0000 O   0  0  0  0  0  0  0  0  0  0  0  0
   20.1239  -16.8575    0.0000 C   0  0  0  0  0  0  0  0  0  0  0  0
   20.1239  -19.6639    0.0000 C   0  0  0  0  0  0  0  0  0  0  0  0
   18.9053  -17.5605    0.0000 C   0  0  0  0  0  0  0  0  0  0  0  0
   18.9053  -18.9608    0.0000 C   0  0  0  0  0  0  0  0  0  0  0  0
   21.3365  -16.1632    0.0000 O   0  0  0  0  0  0  0  0  0  0  0  0
   20.1239  -21.0639    0.0000 O   0  0  0  0  0  0  0  0  0  0  0  0
   33.8800  -17.3600    0.0000 Cl  0  0  0  0  0  0  0  0  0  0  0  0
   24.1661  -16.4497    0.0000 C   0  0  0  0  0  0  0  0  0  0  0  0
   24.1661  -17.8266    0.0000 C   0  0  0  0  0  0  0  0  0  0  0  0
   25.3615  -18.5151    0.0000 C   0  0  0  0  0  0  0  0  0  0  0  0
   25.3615  -15.7612    0.0000 C   0  0  0  0  0  0  0  0  0  0  0  0
   26.5498  -16.4497    0.0000 C   0  0  0  0  0  0  0  0  0  0  0  0
   26.5440  -17.8266    0.0000 C   0  0  0  0  0  0  0  0  0  0  0  0
   27.7335  -18.5203    0.0000 C   0  0  0  0  0  0  0  0  0  0  0  0
   28.9288  -17.8368    0.0000 C   0  0  0  0  0  0  0  0  0  0  0  0
   27.7452  -15.7664    0.0000 C   0  0  0  0  0  0  0  0  0  0  0  0
   28.9288  -16.4629    0.0000 C   0  0  0  0  0  0  0  0  0  0  0  0
   28.8813  -13.7162    0.0000 C   0  0  0  0  0  0  0  0  0  0  0  0
   27.6865  -14.3931    0.0000 C   0  0  0  0  0  0  0  0  0  0  0  0
   30.0652  -14.4125    0.0000 C   0  0  0  0  0  0  0  0  0  0  0  0
   30.1185  -15.7818    0.0000 C   0  0  0  0  0  0  0  0  0  0  0  0
   32.4900  -15.7405    0.0000 C   0  0  0  0  0  0  0  0  0  0  0  0
   31.3292  -13.7424    0.0000 C   0  0  0  0  0  0  0  0  0  0  0  0
   32.5040  -14.4427    0.0000 C   0  0  0  0  0  0  0  0  0  0  0  0
   32.5422  -11.7074    0.0000 C   0  0  0  0  0  0  0  0  0  0  0  0
   31.3482  -12.3746    0.0000 C   0  0  0  0  0  0  0  0  0  0  0  0
   33.7170  -12.4079    0.0000 C   0  0  0  0  0  0  0  0  0  0  0  0
   34.9105  -11.7464    0.0000 C   0  0  0  0  0  0  0  0  0  0  0  0
   36.0800  -12.4494    0.0000 C   0  0  0  0  0  0  0  0  0  0  0  0
   36.0506  -13.8065    0.0000 C   0  0  0  0  0  0  0  0  0  0  0  0
   37.2700  -11.7963    0.0000 C   0  0  0  0  0  0  0  0  0  0  0  0
   30.1656  -11.6697    0.0000 C   0  0  0  0  0  0  0  0  0  0  0  0
   26.5375  -15.0728    0.0000 C   0  0  0  0  0  0  0  0  0  0  0  0
   22.9740  -18.5158    0.0000 O   0  0  0  0  0  0  0  0  0  0  0  0
   30.0558  -13.0352    0.0000 C   0  0  0  0  0  0  0  0  0  0  0  0
  1  2  1  0
  1  3  1  1
  1  4  1  0
  2  5  1  0
  2  6  1  0
  2  7  1  6
  8  3  1  1
  4  9  1  0
  4 10  1  6
  5 11  2  0
  5 12  1  0
  6 13  1  0
  6 14  2  0
  8 15  1  0
  9 16  1  0
 10 17  1  0
 10 18  1  0
 11 19  1  0
 13 20  1  0
 15 21  1  0
 15 22  1  6
 19 23  1  0
 19 24  2  0
 20 25  1  0
 20 26  2  0
 21 27  2  0
 23 28  2  0
 27 29  1  0
 28 30  1  0
  8 11  1  0
  9 13  2  0
 21 23  1  0
 29 30  2  0
 15 31  1  0
 28 32  1  0
 49 46  1  0
 47 48  1  1
 39 40  1  1
 40 41  1  0
 43 41  1  6
 42 38  1  0
 49 50  1  1
 53 51  1  0
 51 52  1  0
 52 49  1  0
 38 37  1  0
 37 34  1  0
 55 54  1  0
 54 53  1  0
 34 35  1  0
 42 43  1  0
 55 56  1  0
 57 55  1  0
 43 47  1  0
 52 58  1  6
 46 44  1  0
 44 45  1  0
 42 45  1  1
 35 36  1  0
 36 39  1  0
 38 59  1  1
 38 39  1  0
 46 47  1  0
 35 60  1  6
 48 50  1  0
 46 61  1  1
M  END
