13438-71-6.mol
     RDKit          2D

  5  3  0  0  0  0  0  0  0  0999 V2000
   -0.7260   -0.2053    0.0000 Si  0  0  0  0  0  4  0  0  0  0  0  0
   -0.7260    0.6219    0.0000 O   0  0  0  0  0  0  0  0  0  0  0  0
   -0.0139   -0.6219    0.0000 O   0  0  0  0  0  0  0  0  0  0  0  0
   -1.4341   -0.6219    0.0000 O   0  0  0  0  0  0  0  0  0  0  0  0
    1.4341   -0.5663    0.0000 Mg  0  0  0  0  0 15  0  0  0  0  0  0
  1  2  2  0
  1  3  1  0
  1  4  1  0
M  CHG  3   3  -1   4  -1   5   2
M  END
