 
     RDKit          2D

 43 40  0  0  1  0  0  0  0  0999 V2000
   36.8309  -12.5307    0.0000 C   0  0  0  0  0  0  0  0  0  0  0  0
   37.2787  -13.8509    0.0000 C   0  0  0  0  0  0  0  0  0  0  0  0
   37.9650  -11.7163    0.0000 O   0  0  0  0  0  0  0  0  0  0  0  0
   38.6804  -13.8509    0.0000 C   0  0  0  0  0  0  0  0  0  0  0  0
   39.0992  -12.5481    0.0000 C   0  0  0  0  0  0  0  0  0  0  0  0
   39.5121  -14.9793    0.0000 O   0  0  0  0  0  0  0  0  0  0  0  0
   40.0821  -11.5535    0.0000 O   0  0  0  0  0  0  0  0  0  0  0  0
   35.6242  -11.8340    0.0000 C   0  0  0  0  0  0  0  0  0  0  0  0
   34.4173  -12.5307    0.0000 C   0  0  0  0  0  0  0  0  0  0  0  0
   36.4634  -14.9886    0.0000 O   0  0  0  0  0  0  0  0  0  0  0  0
   35.6239  -10.4238    0.0000 O   0  0  0  0  0  0  0  0  0  0  0  0
   33.1846  -11.8191    0.0000 O   0  0  0  0  0  0  0  0  0  0  0  0
   23.1273  -12.6153    0.0000 C   0  0  0  0  0  0  0  0  0  0  0  0
   21.9102  -13.3140    0.0000 C   0  0  0  0  0  0  0  0  0  0  0  0
   24.3385  -13.3140    0.0000 C   0  0  0  0  0  0  0  0  0  0  0  0
   23.1273  -11.2177    0.0000 O   0  0  0  0  0  0  0  0  0  0  0  0
   20.6991  -12.6153    0.0000 C   0  0  0  0  0  0  0  0  0  0  0  0
   20.6991  -14.0186    0.0000 C   0  0  0  0  0  0  0  0  0  0  0  0
   23.1273  -14.0186    0.0000 C   0  0  0  0  0  0  0  0  0  0  0  0
   25.5438  -12.6153    0.0000 N   0  0  0  0  0  0  0  0  0  0  0  0
   24.3385  -14.7116    0.0000 O   0  0  0  0  0  0  0  0  0  0  0  0
   19.4820  -13.3140    0.0000 O   0  0  0  0  0  0  0  0  0  0  0  0
   26.7609  -13.3140    0.0000 C   0  0  0  0  0  0  0  0  0  0  0  0
   27.9722  -12.6153    0.0000 C   0  0  0  0  0  0  0  0  0  0  0  0
   29.1833  -13.3140    0.0000 C   0  0  0  0  0  0  0  0  0  0  0  0
   30.4003  -12.6153    0.0000 O   0  0  0  0  0  0  0  0  0  0  0  0
   29.1833  -14.7116    0.0000 O   0  0  0  0  0  0  0  0  0  0  0  0
   33.2013  -12.9750    0.0000 Ca  0  0  0  0  0 15  0  0  0  0  0  0
   23.1273  -12.6153    0.0000 C   0  0  0  0  0  0  0  0  0  0  0  0
   21.9102  -13.3140    0.0000 C   0  0  0  0  0  0  0  0  0  0  0  0
   20.6991  -12.6153    0.0000 C   0  0  0  0  0  0  0  0  0  0  0  0
   19.4820  -13.3140    0.0000 O   0  0  0  0  0  0  0  0  0  0  0  0
   20.6991  -14.0186    0.0000 C   0  0  0  0  0  0  0  0  0  0  0  0
   23.1273  -14.0186    0.0000 C   0  0  0  0  0  0  0  0  0  0  0  0
   24.3385  -13.3140    0.0000 C   0  0  0  0  0  0  0  0  0  0  0  0
   25.5438  -12.6153    0.0000 N   0  0  0  0  0  0  0  0  0  0  0  0
   26.7609  -13.3140    0.0000 C   0  0  0  0  0  0  0  0  0  0  0  0
   27.9722  -12.6153    0.0000 C   0  0  0  0  0  0  0  0  0  0  0  0
   29.1833  -13.3140    0.0000 C   0  0  0  0  0  0  0  0  0  0  0  0
   30.4003  -12.6153    0.0000 O   0  0  0  0  0  0  0  0  0  0  0  0
   29.1833  -14.7116    0.0000 O   0  0  0  0  0  0  0  0  0  0  0  0
   24.3385  -14.7116    0.0000 O   0  0  0  0  0  0  0  0  0  0  0  0
   23.1273  -11.2177    0.0000 O   0  0  0  0  0  0  0  0  0  0  0  0
  1  2  1  0
  1  3  1  1
  2  4  2  0
  3  5  1  0
  4  6  1  0
  5  7  2  0
  4  5  1  0
  1  8  1  0
  8  9  1  0
  2 10  1  0
  8 11  1  6
  9 12  1  0
 25 26  1  0
 25 27  2  0
 13 14  1  0
 13 15  1  0
 13 16  1  1
 14 17  1  0
 14 18  1  0
 14 19  1  0
 15 20  1  0
 15 21  2  0
 17 22  1  0
 20 23  1  0
 23 24  1  0
 24 25  1  0
 39 40  1  0
 39 41  2  0
 29 30  1  0
 29 35  1  0
 29 43  1  1
 30 31  1  0
 30 33  1  0
 30 34  1  0
 35 36  1  0
 35 42  2  0
 31 32  1  0
 36 37  1  0
 37 38  1  0
 38 39  1  0
M  CHG  3  26  -1  28   2  40  -1
M  END
