 
     RDKit          2D

 33 36  0  0  1  0  0  0  0  0999 V2000
   26.3415  -16.6525    0.0000 C   0  0  0  0  0  0  0  0  0  0  0  0
   26.3532  -18.0327    0.0000 C   0  0  0  0  0  0  0  0  0  0  0  0
   27.5286  -15.9507    0.0000 C   0  0  0  0  0  0  0  0  0  0  0  0
   25.1309  -15.9800    0.0000 C   0  0  0  0  0  0  0  0  0  0  0  0
   25.1718  -18.7462    0.0000 C   0  0  0  0  0  0  0  0  0  0  0  0
   27.5578  -18.7110    0.0000 C   0  0  0  0  0  0  0  0  0  0  0  0
   26.3532  -19.4305    0.0000 O   0  0  0  0  0  0  0  0  0  0  0  0
   28.7975  -16.6291    0.0000 C   0  0  0  0  0  0  0  0  0  0  0  0
   27.5110  -14.5531    0.0000 N   0  0  0  0  0  0  0  0  0  0  0  0
   23.9437  -16.6876    0.0000 C   0  0  0  0  0  0  0  0  0  0  0  0
   23.9671  -18.0678    0.0000 C   0  0  0  0  0  0  0  0  0  0  0  0
   25.1952  -20.1440    0.0000 O   0  0  0  0  0  0  0  0  0  0  0  0
   28.7450  -18.0093    0.0000 C   0  0  0  0  0  0  0  0  0  0  0  0
   27.5695  -20.1146    0.0000 O   0  0  0  0  0  0  0  0  0  0  0  0
   29.9322  -15.9215    0.0000 O   0  0  0  0  0  0  0  0  0  0  0  0
   28.7158  -13.8396    0.0000 C   0  0  0  0  0  0  0  0  0  0  0  0
   26.2947  -13.8689    0.0000 C   0  0  0  0  0  0  0  0  0  0  0  0
   22.7331  -16.0092    0.0000 C   0  0  0  0  0  0  0  0  0  0  0  0
   22.7740  -18.7872    0.0000 C   0  0  0  0  0  0  0  0  0  0  0  0
   29.9615  -18.6993    0.0000 C   0  0  0  0  0  0  0  0  0  0  0  0
   21.5402  -16.7227    0.0000 C   0  0  0  0  0  0  0  0  0  0  0  0
   21.5634  -18.1146    0.0000 C   0  0  0  0  0  0  0  0  0  0  0  0
   22.7274  -20.1848    0.0000 O   0  0  0  0  0  0  0  0  0  0  0  0
   31.1661  -17.9859    0.0000 N   0  0  0  0  0  0  0  0  0  0  0  0
   29.9790  -20.0972    0.0000 O   0  0  0  0  0  0  0  0  0  0  0  0
   20.3120  -16.0443    0.0000 C   0  0  0  0  0  0  0  0  0  0  0  0
   20.3705  -18.8398    0.0000 C   0  0  0  0  0  0  0  0  0  0  0  0
   19.1190  -16.7695    0.0000 C   0  0  0  0  0  0  0  0  0  0  0  0
   20.2886  -14.6467    0.0000 N   0  0  0  0  0  0  0  0  0  0  0  0
   19.1424  -18.1672    0.0000 C   0  0  0  0  0  0  0  0  0  0  0  0
   20.3997  -20.2434    0.0000 O   0  0  0  0  0  0  0  0  0  0  0  0
   21.4875  -13.9272    0.0000 C   0  0  0  0  0  0  0  0  0  0  0  0
   19.0663  -13.9683    0.0000 C   0  0  0  0  0  0  0  0  0  0  0  0
  1  2  1  0
  1  3  1  0
  1  4  1  1
  2  5  1  0
  2  6  1  0
  2  7  1  6
  3  8  1  0
  3  9  1  6
 10  4  1  1
  5 11  2  0
  5 12  1  0
  6 13  1  0
  6 14  2  0
  8 15  1  0
  9 16  1  0
  9 17  1  0
 10 18  1  0
 11 19  1  0
 13 20  1  0
 18 21  1  0
 19 22  1  0
 19 23  2  0
 20 24  1  0
 20 25  2  0
 21 26  2  0
 22 27  2  0
 26 28  1  0
 26 29  1  0
 27 30  1  0
 27 31  1  0
 29 32  1  0
 29 33  1  0
  8 13  2  0
 10 11  1  0
 21 22  1  0
 28 30  2  0
M  END
