828256-07-1.mol
     RDKit          2D

 60 62  0  0  1  0  0  0  0  0999 V2000
   -0.4234   -3.1454    0.0000 O   0  0  0  0  0  0  0  0  0  0  0  0
   -3.0845   -3.1454    0.0000 O   0  0  0  0  0  0  0  0  0  0  0  0
    1.6890   -2.0690    0.0000 O   0  0  0  0  0  0  0  0  0  0  0  0
    0.9071   -0.8409    0.0000 O   0  0  0  0  0  0  0  0  0  0  0  0
    4.0309   -4.5927    0.0000 O   0  0  0  0  0  0  0  0  0  0  0  0
   -5.3891   -3.1454    0.0000 O   0  0  0  0  0  0  0  0  0  0  0  0
    1.2779   -5.4872    0.0000 O   0  0  0  0  0  0  0  0  0  0  0  0
    5.3855   -2.7282    0.0000 O   0  0  0  0  0  0  0  0  0  0  0  0
   -5.3891   -7.1369    0.0000 O   0  0  0  0  0  0  0  0  0  0  0  0
   -7.6936   -5.8064    0.0000 O   0  0  0  0  0  0  0  0  0  0  0  0
    3.8919   -0.3748    0.0000 O   0  0  0  0  0  0  0  0  0  0  0  0
    8.6147   -5.0745    0.0000 O   0  0  0  0  0  0  0  0  0  0  0  0
    8.8929   -2.4279    0.0000 O   0  0  0  0  0  0  0  0  0  0  0  0
   -4.4150   -0.8409    0.0000 N   0  0  0  0  0  0  0  0  0  0  0  0
   -0.4234    1.4637    0.0000 N   0  0  0  0  0  0  0  0  0  0  0  0
   -3.0845   -5.8064    0.0000 N   0  0  0  0  0  0  0  0  0  0  0  0
    6.1838   -6.1569    0.0000 N   0  0  0  0  0  0  0  0  0  0  0  0
   -8.8459   -3.8106    0.0000 N   0  0  0  0  0  0  0  0  0  0  0  0
    7.9555   -0.3227    0.0000 N   0  0  0  0  0  0  0  0  0  0  0  0
   -1.0887   -1.9931    0.0000 C   0  0  0  0  0  0  0  0  0  0  0  0
   -2.4192   -1.9931    0.0000 C   0  0  0  0  0  0  0  0  0  0  0  0
   -3.0845   -0.8409    0.0000 C   0  0  0  0  0  0  0  0  0  0  0  0
   -0.4234   -0.8409    0.0000 C   0  0  0  0  0  0  0  0  0  0  0  0
   -1.0887    0.3115    0.0000 C   0  0  0  0  0  0  0  0  0  0  0  0
   -2.4192    0.3115    0.0000 C   0  0  0  0  0  0  0  0  0  0  0  0
    0.9071   -3.1454    0.0000 C   0  0  0  0  0  0  0  0  0  0  0  0
    1.6890   -4.2218    0.0000 C   0  0  0  0  0  0  0  0  0  0  0  0
    2.9545   -3.8106    0.0000 C   0  0  0  0  0  0  0  0  0  0  0  0
   -4.2369   -3.8106    0.0000 C   0  0  0  0  0  0  0  0  0  0  0  0
    2.9545   -2.4801    0.0000 C   0  0  0  0  0  0  0  0  0  0  0  0
   -4.2369   -5.1412    0.0000 C   0  0  0  0  0  0  0  0  0  0  0  0
   -5.3891   -5.8064    0.0000 C   0  0  0  0  0  0  0  0  0  0  0  0
   -6.5413   -5.1412    0.0000 C   0  0  0  0  0  0  0  0  0  0  0  0
   -6.5413   -3.8106    0.0000 C   0  0  0  0  0  0  0  0  0  0  0  0
    5.2465   -4.0515    0.0000 C   0  0  0  0  0  0  0  0  0  0  0  0
    6.3229   -4.8335    0.0000 C   0  0  0  0  0  0  0  0  0  0  0  0
    4.0309   -1.6980    0.0000 C   0  0  0  0  0  0  0  0  0  0  0  0
    7.5383   -4.2924    0.0000 C   0  0  0  0  0  0  0  0  0  0  0  0
    7.6775   -2.9692    0.0000 C   0  0  0  0  0  0  0  0  0  0  0  0
    6.6009   -2.1871    0.0000 C   0  0  0  0  0  0  0  0  0  0  0  0
   -7.6936   -3.1454    0.0000 C   0  0  0  0  0  0  0  0  0  0  0  0
    6.7401   -0.8639    0.0000 C   0  0  0  0  0  0  0  0  0  0  0  0
   -9.2182    6.8349    0.0000 O   0  0  0  0  0  0  0  0  0  0  0  0
   -8.0658    4.8391    0.0000 O   0  0  0  0  0  0  0  0  0  0  0  0
    1.1523    6.1696    0.0000 C   0  0  0  0  0  0  0  0  0  0  0  0
   -0.0001    6.8349    0.0000 C   0  0  0  0  0  0  0  0  0  0  0  0
    2.3045    6.8349    0.0000 C   0  0  0  0  0  0  0  0  0  0  0  0
   -1.1523    6.1696    0.0000 C   0  0  0  0  0  0  0  0  0  0  0  0
    3.4568    6.1696    0.0000 C   0  0  0  0  0  0  0  0  0  0  0  0
   -2.3045    6.8349    0.0000 C   0  0  0  0  0  0  0  0  0  0  0  0
    4.6090    6.8349    0.0000 C   0  0  0  0  0  0  0  0  0  0  0  0
   -3.4568    6.1696    0.0000 C   0  0  0  0  0  0  0  0  0  0  0  0
    5.7614    6.1696    0.0000 C   0  0  0  0  0  0  0  0  0  0  0  0
   -4.6091    6.8349    0.0000 C   0  0  0  0  0  0  0  0  0  0  0  0
    6.9136    6.8349    0.0000 C   0  0  0  0  0  0  0  0  0  0  0  0
   -5.7614    6.1696    0.0000 C   0  0  0  0  0  0  0  0  0  0  0  0
    8.0658    6.1696    0.0000 C   0  0  0  0  0  0  0  0  0  0  0  0
   -6.9136    6.8349    0.0000 C   0  0  0  0  0  0  0  0  0  0  0  0
    9.2181    6.8349    0.0000 C   0  0  0  0  0  0  0  0  0  0  0  0
   -8.0658    6.1696    0.0000 C   0  0  0  0  0  0  0  0  0  0  0  0
 20  1  1  1
 26  1  1  6
 21  2  1  6
 29  2  1  6
  3 26  1  0
  3 30  1  0
 23  4  1  6
 28  5  1  1
 35  5  1  1
  6 29  1  0
  6 34  1  0
 27  7  1  1
  8 35  1  0
  8 40  1  0
 32  9  1  1
 33 10  1  6
 11 37  1  0
 38 12  1  6
 39 13  1  1
 22 14  1  1
 24 15  1  1
 31 16  1  6
 36 17  1  1
 18 41  1  0
 19 42  1  0
 20 21  1  0
 20 23  1  0
 21 22  1  0
 22 25  1  0
 23 24  1  0
 24 25  1  0
 26 27  1  0
 27 28  1  0
 28 30  1  0
 29 31  1  0
 30 37  1  6
 31 32  1  0
 32 33  1  0
 33 34  1  0
 34 41  1  1
 35 36  1  0
 36 38  1  0
 38 39  1  0
 39 40  1  0
 40 42  1  1
 43 60  1  0
 44 60  2  0
 45 46  1  0
 45 47  1  0
 46 48  1  0
 47 49  1  0
 48 50  1  0
 49 51  1  0
 50 52  1  0
 51 53  1  0
 52 54  1  0
 53 55  1  0
 54 56  1  0
 55 57  1  0
 56 58  1  0
 57 59  1  0
 58 60  1  0
V    1 0
V    2 1
V    3 2
V    4 3
V    5 4
V    6 5
V    7 6
V    8 7
V    9 8
V   10 9
V   11 10
V   12 11
V   13 12
V   14 15
V   15 16
V   16 17
V   17 18
V   18 19
V   19 20
V   20 21
V   21 22
V   22 23
V   23 24
V   24 25
V   25 26
V   26 27
V   27 28
V   28 29
V   29 30
V   30 31
V   31 32
V   32 33
V   33 34
V   34 35
V   35 36
V   36 37
V   37 38
V   38 39
V   39 40
V   40 41
V   41 42
V   42 43
V   43 13
V   44 14
V   45 44
V   46 45
V   47 46
V   48 47
V   49 48
V   50 49
V   51 50
V   52 51
V   53 52
V   54 53
V   55 54
V   56 55
V   57 56
V   58 57
V   59 58
V   60 59
M  END
