 
     RDKit          2D

 31 36  0  0  1  0  0  0  0  0999 V2000
    9.3100   -8.0500    0.0000 C   0  0  0  0  0  0  0  0  0  0  0  0
    8.1200   -8.7500    0.0000 C   0  0  0  0  0  0  0  0  0  0  0  0
    9.3100   -6.6500    0.0000 C   0  0  0  0  0  0  0  0  0  0  0  0
   11.6900   -8.0500    0.0000 C   0  0  0  0  0  0  0  0  0  0  0  0
    6.9300   -8.0500    0.0000 C   0  0  0  0  0  0  0  0  0  0  0  0
    8.1200  -10.1500    0.0000 C   0  0  0  0  0  0  0  0  0  0  0  0
   10.5000   -5.9500    0.0000 C   0  0  0  0  0  0  0  0  0  0  0  0
    8.1200   -5.9500    0.0000 C   0  0  0  0  0  0  0  0  0  0  0  0
    9.3100   -5.2500    0.0000 C   0  0  0  0  0  0  0  0  0  0  0  0
   11.6900   -6.6500    0.0000 C   0  0  0  0  0  0  0  0  0  0  0  0
    5.7400   -8.7500    0.0000 C   0  0  0  0  0  0  0  0  0  0  0  0
    6.9300   -6.6500    0.0000 C   0  0  0  0  0  0  0  0  0  0  0  0
    6.9300  -10.8500    0.0000 C   0  0  0  0  0  0  0  0  0  0  0  0
   10.5000   -4.6200    0.0000 O   0  0  0  0  0  0  0  0  0  0  0  0
    5.7400  -10.1500    0.0000 C   0  0  0  0  0  0  0  0  0  0  0  0
    4.5500   -8.0500    0.0000 C   0  0  0  0  0  0  0  0  0  0  0  0
   11.6900   -3.9200    0.0000 C   0  0  0  0  0  0  0  0  0  0  0  0
    4.5500  -10.8500    0.0000 C   0  0  0  0  0  0  0  0  0  0  0  0
    3.3600   -8.7500    0.0000 C   0  0  0  0  0  0  0  0  0  0  0  0
   11.6900   -2.5200    0.0000 O   0  0  0  0  0  0  0  0  0  0  0  0
    3.3600  -10.1500    0.0000 C   0  0  0  0  0  0  0  0  0  0  0  0
    2.2400  -10.7800    0.0000 O   0  0  0  0  0  0  0  0  0  0  0  0
   12.8800   -4.6200    0.0000 C   0  0  0  0  0  0  0  0  0  0  0  0
   12.8686   -6.0200    0.0000 C   0  0  0  0  0  0  0  0  0  0  0  0
   14.0753   -6.7298    0.0000 C   0  0  0  0  0  0  0  0  0  0  0  0
   15.3634   -6.0397    0.0000 C   0  0  0  0  0  0  0  0  0  0  0  0
   15.3048   -4.6397    0.0000 C   0  0  0  0  0  0  0  0  0  0  0  0
   14.0981   -3.9299    0.0000 C   0  0  0  0  0  0  0  0  0  0  0  0
   13.5800   -5.8324    0.0000 C   0  0  0  0  0  0  0  0  0  0  0  0
   16.4667   -6.7298    0.0000 C   0  0  0  0  0  0  0  0  0  0  0  0
   14.5934   -4.8272    0.0000 C   0  0  0  0  0  0  0  0  0  0  0  0
  1  2  1  0
  1  3  1  0
  1  4  1  1
  2  5  1  0
  2  6  1  6
  3  7  1  0
  3  8  1  0
  3  9  1  1
  4 10  1  0
  5 11  1  0
  5 12  1  1
  6 13  1  0
  7 14  1  1
 11 15  1  0
 11 16  1  6
 14 17  1  0
 15 18  2  0
 16 19  1  0
 17 20  2  0
 18 21  1  0
 21 22  2  0
  7 10  1  0
  8 12  1  0
 13 15  1  0
 19 21  1  0
 17 23  1  0
 23 24  1  0
 24 25  1  0
 25 26  1  0
 26 27  1  0
 27 28  2  0
 23 28  1  0
 23 29  1  0
 26 30  1  0
 26 31  1  0
 31 29  1  0
M  END
