 
     RDKit          2D

 97 93  0  0  0  0  0  0  0  0999 V2000
   32.0998  -18.2186    0.0000 C   0  0  0  0  0  0  0  0  0  0  0  0
   32.0998  -19.6154    0.0000 C   0  0  0  0  0  0  0  0  0  0  0  0
   30.8844  -17.5181    0.0000 C   0  0  0  0  0  0  0  0  0  0  0  0
   33.3093  -17.5181    0.0000 C   0  0  0  0  0  0  0  0  0  0  0  0
   30.8904  -20.3173    0.0000 C   0  0  0  0  0  0  0  0  0  0  0  0
   33.3153  -20.3116    0.0000 C   0  0  0  0  0  0  0  0  0  0  0  0
   30.8844  -16.1157    0.0000 C   0  0  0  0  0  0  0  0  0  0  0  0
   33.3093  -16.1157    0.0000 C   0  0  0  0  0  0  0  0  0  0  0  0
   32.0998  -15.4195    0.0000 C   0  0  0  0  0  0  0  0  0  0  0  0
   32.0998  -14.0170    0.0000 C   0  0  0  0  0  0  0  0  0  0  0  0
   11.9700  -19.3900    0.0000 C   0  0  0  0  0  0  0  0  0  0  0  0
   13.1824  -18.6900    0.0000 C   0  0  0  0  0  0  0  0  0  0  0  0
   14.3949  -19.3900    0.0000 C   0  0  0  0  0  0  0  0  0  0  0  0
   15.6073  -18.6900    0.0000 C   0  0  0  0  0  0  0  0  0  0  0  0
   16.8197  -19.3900    0.0000 C   0  0  0  0  0  0  0  0  0  0  0  0
   18.0322  -18.6900    0.0000 C   0  0  0  0  0  0  0  0  0  0  0  0
   19.2446  -19.3900    0.0000 C   0  0  0  0  0  0  0  0  0  0  0  0
   20.4570  -18.6900    0.0000 C   0  0  0  0  0  0  0  0  0  0  0  0
   13.1824  -17.2902    0.0000 C   0  0  0  0  0  0  0  0  0  0  0  0
   18.0322  -17.2903    0.0000 C   0  0  0  0  0  0  0  0  0  0  0  0
   29.3619  -16.7898    0.0000 C   0  0  0  0  0  0  0  0  0  0  0  0
   29.3619  -18.1897    0.0000 C   0  0  0  0  0  0  0  0  0  0  0  0
   28.1410  -17.4904    0.0000 C   0  0  0  0  0  0  0  0  0  0  0  0
   28.1527  -16.0905    0.0000 C   0  0  0  0  0  0  0  0  0  0  0  0
   28.1527  -18.8903    0.0000 C   0  0  0  0  0  0  0  0  0  0  0  0
   30.7560  -18.1897    0.0000 C   0  0  0  0  0  0  0  0  0  0  0  0
   30.3407  -19.1803    0.0000 C   0  0  0  0  0  0  0  0  0  0  0  0
   28.1410  -14.6964    0.0000 C   0  0  0  0  0  0  0  0  0  0  0  0
   26.9480  -18.1897    0.0000 C   0  0  0  0  0  0  0  0  0  0  0  0
   26.9170  -16.7827    0.0000 C   0  0  0  0  0  0  0  0  0  0  0  0
   27.2350  -20.1409    0.0000 C   0  0  0  0  0  0  0  0  0  0  0  0
   26.0527  -19.4633    0.0000 C   0  0  0  0  0  0  0  0  0  0  0  0
   24.8707  -20.1409    0.0000 C   0  0  0  0  0  0  0  0  0  0  0  0
   23.6886  -19.4633    0.0000 C   0  0  0  0  0  0  0  0  0  0  0  0
   22.5064  -20.1409    0.0000 C   0  0  0  0  0  0  0  0  0  0  0  0
   21.3241  -19.4633    0.0000 C   0  0  0  0  0  0  0  0  0  0  0  0
   20.1491  -20.1409    0.0000 C   0  0  0  0  0  0  0  0  0  0  0  0
   21.3241  -18.1010    0.0000 C   0  0  0  0  0  0  0  0  0  0  0  0
   28.4099  -19.4633    0.0000 C   0  0  0  0  0  0  0  0  0  0  0  0
   25.0596  -18.2295    0.0000 C   0  0  0  0  0  0  0  0  0  0  0  0
   26.7493  -18.2296    0.0000 O   0  0  0  0  0  0  0  0  0  0  0  0
   17.7586  -16.2624    0.0000 O   0  0  0  0  0  0  0  0  0  0  0  0
   18.9746  -16.9553    0.0000 C   0  0  0  0  0  0  0  0  0  0  0  0
   20.1835  -16.2554    0.0000 C   0  0  0  0  0  0  0  0  0  0  0  0
   21.3995  -16.9482    0.0000 C   0  0  0  0  0  0  0  0  0  0  0  0
   22.6153  -16.2483    0.0000 C   0  0  0  0  0  0  0  0  0  0  0  0
   23.8313  -16.9411    0.0000 C   0  0  0  0  0  0  0  0  0  0  0  0
   25.0473  -16.2412    0.0000 C   0  0  0  0  0  0  0  0  0  0  0  0
   26.2631  -16.9341    0.0000 C   0  0  0  0  0  0  0  0  0  0  0  0
   27.4791  -16.2342    0.0000 C   0  0  0  0  0  0  0  0  0  0  0  0
   28.6880  -16.9270    0.0000 C   0  0  0  0  0  0  0  0  0  0  0  0
   29.9040  -16.2271    0.0000 C   0  0  0  0  0  0  0  0  0  0  0  0
   24.1500  -18.7600    0.0000 C   0  0  0  0  0  0  0  0  0  0  0  0
   24.1500  -20.0900    0.0000 C   0  0  0  0  0  0  0  0  0  0  0  0
   25.2700  -16.7300    0.0000 C   0  0  0  0  0  0  0  0  0  0  0  0
   23.0300  -18.0600    0.0000 C   0  0  0  0  0  0  0  0  0  0  0  0
   25.2700  -18.0600    0.0000 C   0  0  0  0  0  0  0  0  0  0  0  0
   23.0300  -20.7200    0.0000 C   0  0  0  0  0  0  0  0  0  0  0  0
   25.2700  -20.7200    0.0000 C   0  0  0  0  0  0  0  0  0  0  0  0
   24.1500  -16.1000    0.0000 C   0  0  0  0  0  0  0  0  0  0  0  0
   23.0300  -16.7300    0.0000 C   0  0  0  0  0  0  0  0  0  0  0  0
   24.1500  -14.7000    0.0000 C   0  0  0  0  0  0  0  0  0  0  0  0
   29.2172  -19.8798    0.0000 C   0  0  0  0  0  0  0  0  0  0  0  0
   28.0010  -20.5811    0.0000 C   0  0  0  0  0  0  0  0  0  0  0  0
   30.4267  -20.5811    0.0000 C   0  0  0  0  0  0  0  0  0  0  0  0
   29.2172  -18.4836    0.0000 C   0  0  0  0  0  0  0  0  0  0  0  0
   26.7915  -19.8798    0.0000 C   0  0  0  0  0  0  0  0  0  0  0  0
   31.6362  -19.8798    0.0000 C   0  0  0  0  0  0  0  0  0  0  0  0
   25.5819  -20.5811    0.0000 C   0  0  0  0  0  0  0  0  0  0  0  0
   32.8523  -20.5811    0.0000 O   0  0  0  0  0  0  0  0  0  0  0  0
   24.3659  -19.8798    0.0000 C   0  0  0  0  0  0  0  0  0  0  0  0
   23.1562  -20.5811    0.0000 C   0  0  0  0  0  0  0  0  0  0  0  0
   24.3659  -18.4836    0.0000 C   0  0  0  0  0  0  0  0  0  0  0  0
   30.7081  -16.2805    0.0000 C   0  0  0  0  0  0  0  0  0  0  0  0
   29.4938  -16.9869    0.0000 C   0  0  0  0  0  0  0  0  0  0  0  0
   31.9110  -16.9811    0.0000 C   0  0  0  0  0  0  0  0  0  0  0  0
   30.7024  -14.8792    0.0000 C   0  0  0  0  0  0  0  0  0  0  0  0
   28.2793  -16.2862    0.0000 C   0  0  0  0  0  0  0  0  0  0  0  0
   31.9110  -18.3765    0.0000 C   0  0  0  0  0  0  0  0  0  0  0  0
   27.0649  -16.9928    0.0000 C   0  0  0  0  0  0  0  0  0  0  0  0
   33.1253  -19.0654    0.0000 O   0  0  0  0  0  0  0  0  0  0  0  0
   25.8504  -16.2921    0.0000 C   0  0  0  0  0  0  0  0  0  0  0  0
   24.6419  -16.9985    0.0000 C   0  0  0  0  0  0  0  0  0  0  0  0
   25.8504  -14.8909    0.0000 C   0  0  0  0  0  0  0  0  0  0  0  0
   28.0397  -20.5826    0.0000 C   0  0  0  0  0  0  0  0  0  0  0  0
   26.8277  -19.8799    0.0000 C   0  0  0  0  0  0  0  0  0  0  0  0
   29.2518  -19.8799    0.0000 C   0  0  0  0  0  0  0  0  0  0  0  0
   25.6092  -20.5826    0.0000 C   0  0  0  0  0  0  0  0  0  0  0  0
   30.4702  -20.5826    0.0000 C   0  0  0  0  0  0  0  0  0  0  0  0
   24.3973  -19.8799    0.0000 C   0  0  0  0  0  0  0  0  0  0  0  0
   31.6821  -19.8799    0.0000 C   0  0  0  0  0  0  0  0  0  0  0  0
   23.1852  -20.5826    0.0000 C   0  0  0  0  0  0  0  0  0  0  0  0
   32.8943  -20.5826    0.0000 C   0  0  0  0  0  0  0  0  0  0  0  0
   21.9667  -19.8799    0.0000 C   0  0  0  0  0  0  0  0  0  0  0  0
   34.1127  -19.8799    0.0000 C   0  0  0  0  0  0  0  0  0  0  0  0
   20.7547  -20.5826    0.0000 C   0  0  0  0  0  0  0  0  0  0  0  0
   35.3077  -20.5708    0.0000 O   0  0  0  0  0  0  0  0  0  0  0  0
  1  2  1  0
  1  3  1  0
  1  4  1  0
  2  5  2  0
  2  6  1  0
  3  7  1  0
  4  8  1  0
  7  9  1  0
  9 10  1  0
  8  9  2  0
 11 12  1  0
 12 13  2  3
 13 14  1  0
 14 15  1  0
 15 16  1  0
 16 17  1  0
 17 18  2  0
 12 19  1  0
 16 20  2  0
 21 22  1  0
 21 23  1  0
 21 24  1  0
 22 25  1  0
 22 26  1  0
 22 27  1  0
 24 30  2  0
 24 28  1  0
 25 29  1  0
 25 23  1  0
 30 29  1  0
 31 32  1  0
 36 37  1  0
 33 34  1  0
 36 38  1  0
 34 35  1  0
 32 33  1  0
 31 39  2  0
 32 40  1  1
 35 36  2  3
 32 41  1  0
 46 47  1  0
 42 43  2  0
 47 48  1  0
 44 45  1  0
 48 49  1  0
 49 50  1  0
 45 46  1  0
 50 51  1  0
 43 44  1  0
 51 52  1  0
 53 54  1  0
 53 55  1  0
 53 56  1  0
 53 57  1  0
 54 58  1  0
 54 59  1  0
 55 60  1  0
 56 61  1  0
 55 57  1  0
 60 61  1  0
 60 62  2  0
 63 64  1  0
 63 65  2  0
 63 66  1  0
 64 67  1  0
 65 68  1  0
 67 69  1  0
 68 70  2  0
 69 71  2  3
 71 72  1  0
 71 73  1  0
 74 75  1  0
 74 76  2  0
 74 77  1  0
 75 78  1  0
 76 79  1  0
 78 80  1  0
 79 81  2  0
 80 82  2  3
 82 83  1  0
 82 84  1  0
 85 86  1  0
 85 87  1  0
 86 88  1  0
 87 89  1  0
 88 90  1  0
 89 91  1  0
 90 92  1  0
 91 93  1  0
 92 94  1  0
 93 95  1  0
 94 96  1  0
 95 97  2  0
M  END
