89594
     RDKit          2D

 12 13  0  0  1  0  0  0  0  0999 V2000
    2.9511    1.3184    0.0000 N   0  0  0  0  0  0  0  0  0  0  0  0
    4.6261   -1.7694    0.0000 N   0  0  0  0  0  0  0  0  0  0  0  0
    3.7601    0.7306    0.0000 C   0  0  0  0  0  0  0  0  0  0  0  0
    4.5691    1.3184    0.0000 C   0  0  0  0  0  0  0  0  0  0  0  0
    4.2601    2.2694    0.0000 C   0  0  0  0  0  0  0  0  0  0  0  0
    3.2601    2.2694    0.0000 C   0  0  0  0  0  0  0  0  0  0  0  0
    3.7601   -0.2694    0.0000 C   0  0  0  0  0  0  0  0  0  0  0  0
    2.0000    1.0094    0.0000 C   0  0  0  0  0  0  0  0  0  0  0  0
    2.8940   -0.7694    0.0000 C   0  0  0  0  0  0  0  0  0  0  0  0
    4.6261   -0.7694    0.0000 C   0  0  0  0  0  0  0  0  0  0  0  0
    2.8940   -1.7694    0.0000 C   0  0  0  0  0  0  0  0  0  0  0  0
    3.7601   -2.2694    0.0000 C   0  0  0  0  0  0  0  0  0  0  0  0
  1  3  1  0
  1  6  1  0
  1  8  1  0
  2 10  2  0
  2 12  1  0
  3  4  1  0
  3  7  1  1
  4  5  1  0
  5  6  1  0
  7  9  2  0
  7 10  1  0
  9 11  1  0
 11 12  2  0
M  END
