 
 
 
 26 26  0  0  0  0  0  0  0  0999 V2000
   20.8600  -17.5700    0.0000 C   0  0  0  0  0  0  0  0  0  0  0  0
   20.8600  -18.9700    0.0000 C   0  0  0  0  0  0  0  0  0  0  0  0
   19.6700  -19.6000    0.0000 C   0  0  0  0  0  0  0  0  0  0  0  0
   18.4800  -18.9700    0.0000 C   0  0  0  0  0  0  0  0  0  0  0  0
   18.4800  -17.5700    0.0000 C   0  0  0  0  0  0  0  0  0  0  0  0
   19.6700  -16.8700    0.0000 C   0  0  0  0  0  0  0  0  0  0  0  0
   16.0300  -18.9700    0.0000 C   0  0  0  0  0  0  0  0  0  0  0  0
   16.0300  -17.5700    0.0000 C   0  0  0  0  0  0  0  0  0  0  0  0
   17.2900  -16.8700    0.0000 C   0  0  0  0  0  0  0  0  0  0  0  0
   14.8400  -19.6000    0.0000 C   0  0  0  0  0  0  0  0  0  0  0  0
   13.6500  -18.9700    0.0000 C   0  0  0  0  0  0  0  0  0  0  0  0
   13.6500  -17.5700    0.0000 C   0  0  0  0  0  0  0  0  0  0  0  0
   14.8400  -16.8700    0.0000 C   0  0  0  0  0  0  0  0  0  0  0  0
   18.6200  -15.8200    0.0000 C   0  0  0  0  0  0  0  0  0  0  0  0
   18.6200  -14.4200    0.0000 C   0  0  0  0  0  0  0  0  0  0  0  0
   17.3600  -13.7200    0.0000 C   0  0  0  0  0  0  0  0  0  0  0  0
   19.7400  -13.7900    0.0000 N   0  0  0  0  0  0  0  0  0  0  0  0
   16.0300  -15.8200    0.0000 C   0  0  0  0  0  0  0  0  0  0  0  0
   16.0300  -14.4200    0.0000 O   0  0  0  0  0  0  0  0  0  0  0  0
   14.9100  -13.7200    0.0000 C   0  0  0  0  0  0  0  0  0  0  0  0
   13.6500  -14.4200    0.0000 C   0  0  0  0  0  0  0  0  0  0  0  0
   14.9100  -12.3900    0.0000 O   0  0  0  0  0  0  0  0  0  0  0  0
   20.9300  -14.4200    0.0000 C   0  0  0  0  0  0  0  0  0  0  0  0
   14.7622  -16.4138    0.0000 C   0  0  0  0  0  0  0  0  0  0  0  0
   13.5497  -15.7138    0.0000 C   0  0  0  0  0  0  0  0  0  0  0  0
   23.6600  -18.6900    0.0000 Cl  0  0  0  0  0  0  0  0  0  0  0  0
  1  2  2  0     0  0
  2  3  1  0     0  0
  3  4  2  0     0  0
  4  5  1  0     0  0
  5  6  2  0     0  0
  1  6  1  0     0  0
  7  8  1  0     0  0
  8  9  1  0     0  0
  5  9  1  0     0  0
  7 10  2  0     0  0
 10 11  1  0     0  0
 11 12  2  0     0  0
 12 13  1  0     0  0
  8 13  2  0     0  0
  9 14  1  0     0  0
 14 15  1  0     0  0
 15 16  1  0     0  0
 15 17  1  0     0  0
  9 18  1  0     0  0
 18 19  1  0     0  0
 19 20  1  0     0  0
 20 21  1  0     0  0
 20 22  2  0     0  0
 17 23  1  0     0  0
 18 24  1  0     0  0
 24 25  1  0     0  0
M  END
