81560-40-9.mol
     RDKit          2D

  8  0  0  0  0  0  0  0  0  0999 V2000
    0.2063   -0.3572    0.0000 Cu  0  0  0  0  0 15  0  0  0  0  0  0
   -0.2062    0.3572    0.0000 Cu  0  0  0  0  0 15  0  0  0  0  0  0
    1.0313   -0.3572    0.0000 Cu  0  0  0  0  0 15  0  0  0  0  0  0
   -1.0313    0.3572    0.0000 Cu  0  0  0  0  0 15  0  0  0  0  0  0
    1.4438   -1.0717    0.0000 Zn  0  0  0  0  0 15  0  0  0  0  0  0
   -1.4438    1.0717    0.0000 Zn  0  0  0  0  0 15  0  0  0  0  0  0
    2.2687   -1.0717    0.0000 Zn  0  0  0  0  0 15  0  0  0  0  0  0
   -2.2687    1.0717    0.0000 Zn  0  0  0  0  0 15  0  0  0  0  0  0
M  END
