 
     RDKit          2D

 50 48  0  0  0  0  0  0  0  0999 V2000
    6.3000  -18.8300    0.0000 C   0  0  0  0  0  0  0  0  0  0  0  0
    7.4900  -19.5300    0.0000 O   0  0  0  0  0  0  0  0  0  0  0  0
    5.1100  -19.5300    0.0000 C   0  0  0  0  0  0  0  0  0  0  0  0
    8.6800  -18.8300    0.0000 C   0  0  0  0  0  0  0  0  0  0  0  0
    9.8700  -19.5300    0.0000 C   0  0  0  0  0  0  0  0  0  0  0  0
    8.6800  -17.4300    0.0000 O   0  0  0  0  0  0  0  0  0  0  0  0
   11.0600  -18.8300    0.0000 C   0  0  0  0  0  0  0  0  0  0  0  0
   12.2500  -19.5300    0.0000 C   0  0  0  0  0  0  0  0  0  0  0  0
   13.4400  -18.8300    0.0000 C   0  0  0  0  0  0  0  0  0  0  0  0
   14.8400  -18.8300    0.0000 C   0  0  0  0  0  0  0  0  0  0  0  0
   16.0300  -19.5300    0.0000 C   0  0  0  0  0  0  0  0  0  0  0  0
   17.2200  -18.8300    0.0000 C   0  0  0  0  0  0  0  0  0  0  0  0
   18.6200  -18.8300    0.0000 C   0  0  0  0  0  0  0  0  0  0  0  0
   19.8100  -19.5300    0.0000 C   0  0  0  0  0  0  0  0  0  0  0  0
   21.0000  -18.8300    0.0000 C   0  0  0  0  0  0  0  0  0  0  0  0
   22.4000  -18.8300    0.0000 C   0  0  0  0  0  0  0  0  0  0  0  0
   23.5900  -19.5300    0.0000 C   0  0  0  0  0  0  0  0  0  0  0  0
   24.7800  -18.8300    0.0000 C   0  0  0  0  0  0  0  0  0  0  0  0
   26.1800  -18.8300    0.0000 C   0  0  0  0  0  0  0  0  0  0  0  0
   27.3700  -19.5300    0.0000 C   0  0  0  0  0  0  0  0  0  0  0  0
   28.5600  -18.8300    0.0000 C   0  0  0  0  0  0  0  0  0  0  0  0
   29.9600  -18.8300    0.0000 C   0  0  0  0  0  0  0  0  0  0  0  0
   31.1500  -19.5300    0.0000 C   0  0  0  0  0  0  0  0  0  0  0  0
   32.3400  -18.8300    0.0000 C   0  0  0  0  0  0  0  0  0  0  0  0
   11.7600  -19.4600    0.0000 C   0  0  0  0  0  0  0  0  0  0  0  0
   12.9500  -18.7600    0.0000 C   0  0  0  0  0  0  0  0  0  0  0  0
   14.1400  -19.4600    0.0000 C   0  0  0  0  0  0  0  0  0  0  0  0
   15.5400  -19.4600    0.0000 C   0  0  0  0  0  0  0  0  0  0  0  0
   16.7300  -18.7600    0.0000 C   0  0  0  0  0  0  0  0  0  0  0  0
   17.9900  -19.4600    0.0000 C   0  0  0  0  0  0  0  0  0  0  0  0
   19.3900  -19.4600    0.0000 C   0  0  0  0  0  0  0  0  0  0  0  0
   20.5800  -18.7600    0.0000 C   0  0  0  0  0  0  0  0  0  0  0  0
   21.8400  -19.4600    0.0000 C   0  0  0  0  0  0  0  0  0  0  0  0
   23.1700  -19.4600    0.0000 C   0  0  0  0  0  0  0  0  0  0  0  0
   24.3600  -18.7600    0.0000 C   0  0  0  0  0  0  0  0  0  0  0  0
   25.6200  -19.4600    0.0000 C   0  0  0  0  0  0  0  0  0  0  0  0
   27.0200  -19.4600    0.0000 C   0  0  0  0  0  0  0  0  0  0  0  0
   28.2100  -18.7600    0.0000 C   0  0  0  0  0  0  0  0  0  0  0  0
   29.4700  -19.4600    0.0000 C   0  0  0  0  0  0  0  0  0  0  0  0
   30.8700  -19.4600    0.0000 C   0  0  0  0  0  0  0  0  0  0  0  0
   32.0600  -18.7600    0.0000 C   0  0  0  0  0  0  0  0  0  0  0  0
   33.3200  -19.4600    0.0000 C   0  0  0  0  0  0  0  0  0  0  0  0
   34.7200  -19.4600    0.0000 C   0  0  0  0  0  0  0  0  0  0  0  0
   35.9800  -18.7600    0.0000 C   0  0  0  0  0  0  0  0  0  0  0  0
   37.1700  -19.4600    0.0000 C   0  0  0  0  0  0  0  0  0  0  0  0
   38.3600  -18.7600    0.0000 C   0  0  0  0  0  0  0  0  0  0  0  0
   39.5500  -19.4600    0.0000 O   0  0  0  0  0  0  0  0  0  0  0  0
   40.8100  -18.7600    0.0000 C   0  0  0  0  0  0  0  0  0  0  0  0
   42.0000  -19.4600    0.0000 C   0  0  0  0  0  0  0  0  0  0  0  0
   38.3600  -17.3600    0.0000 O   0  0  0  0  0  0  0  0  0  0  0  0
  1  2  1  0
  1  3  1  0
  2  4  1  0
  4  5  1  0
  4  6  2  0
  5  7  1  0
  7  8  1  0
  8  9  1  0
  9 10  2  0
 10 11  1  0
 11 12  1  0
 12 13  2  0
 13 14  1  0
 14 15  1  0
 15 16  2  0
 16 17  1  0
 17 18  1  0
 18 19  2  0
 19 20  1  0
 20 21  1  0
 21 22  2  0
 22 23  1  0
 23 24  1  0
 25 26  1  0
 26 27  1  0
 27 28  2  0
 28 29  1  0
 29 30  1  0
 30 31  2  0
 31 32  1  0
 32 33  1  0
 33 34  2  0
 34 35  1  0
 35 36  1  0
 36 37  2  0
 37 38  1  0
 38 39  1  0
 39 40  2  0
 40 41  1  0
 41 42  1  0
 42 43  2  0
 43 44  1  0
 44 45  1  0
 45 46  1  0
 46 47  1  0
 47 48  1  0
 48 49  1  0
 46 50  2  0
M  END
