 
     RDKit          2D

 23 26  0  0  1  0  0  0  0  0999 V2000
   31.1604  -19.2289    0.0000 N   0  0  0  0  0  0  0  0  0  0  0  0
   32.5639  -19.2289    0.0000 C   0  0  0  0  0  0  0  0  0  0  0  0
   33.2656  -18.0359    0.0000 C   0  0  0  0  0  0  0  0  0  0  0  0
   32.5639  -16.8429    0.0000 C   0  0  0  0  0  0  0  0  0  0  0  0
   31.1604  -16.8427    0.0000 C   0  0  0  0  0  0  0  0  0  0  0  0
   30.4586  -17.9657    0.0000 C   0  0  0  0  0  0  0  0  0  0  0  0
   33.2656  -15.6499    0.0000 C   0  0  0  0  0  0  0  0  0  0  0  0
   32.5639  -14.3868    0.0000 C   0  0  0  0  0  0  0  0  0  0  0  0
   31.2306  -14.3868    0.0000 C   0  0  0  0  0  0  0  0  0  0  0  0
   30.5288  -15.5798    0.0000 C   0  0  0  0  0  0  0  0  0  0  0  0
   34.6691  -18.0359    0.0000 C   0  0  0  0  0  0  0  0  0  0  0  0
   35.3709  -16.8429    0.0000 C   0  0  0  0  0  0  0  0  0  0  0  0
   34.6691  -15.6499    0.0000 C   0  0  0  0  0  0  0  0  0  0  0  0
   33.2656  -20.4218    0.0000 O   0  0  0  0  0  0  0  0  0  0  0  0
   29.6867  -18.6675    0.0000 C   0  0  0  0  0  0  0  0  0  0  0  0
   29.0551  -19.6499    0.0000 C   0  0  0  0  0  0  0  0  0  0  0  0
   27.5814  -18.8078    0.0000 N   0  0  0  0  0  0  0  0  0  0  0  0
   27.5814  -17.5447    0.0000 C   0  0  0  0  0  0  0  0  0  0  0  0
   26.0376  -19.5797    0.0000 C   0  0  0  0  0  0  0  0  0  0  0  0
   28.3534  -17.7552    0.0000 C   0  0  0  0  0  0  0  0  0  0  0  0
   28.3534  -16.7727    0.0000 C   0  0  0  0  0  0  0  0  0  0  0  0
   26.7393  -18.4569    0.0000 C   0  0  0  0  0  0  0  0  0  0  0  0
   37.2656  -18.5271    0.0000 Cl  0  0  0  0  0  0  0  0  0  0  0  0
  1  2  1  0
  2  3  1  0
  3  4  2  0
  4  5  1  0
  5  6  1  1
  1  6  1  0
  4  7  1  0
  7  8  1  0
  8  9  1  0
  9 10  1  0
  5 10  1  0
  3 11  1  0
 11 12  2  0
 12 13  1  0
 13  7  2  0
  2 14  2  0
 16 17  1  0
 16 15  1  0
 17 18  1  0
 17 19  1  0
 15 20  1  0
 18 21  1  0
 19 22  1  0
 20 21  1  0
 20 22  1  0
 15  1  1  6
M  END
