 
 
 
 33 35  0  0  0  0  0  0  0  0999 V2000
   18.1063  -14.1346    0.0000 C   0  0  0  0  0  0  0  0  0  0  0  0
   18.1063  -12.7492    0.0000 C   0  0  0  0  0  0  0  0  0  0  0  0
   16.9287  -12.0566    0.0000 C   0  0  0  0  0  0  0  0  0  0  0  0
   15.6819  -12.7492    0.0000 C   0  0  0  0  0  0  0  0  0  0  0  0
   15.6819  -14.1346    0.0000 C   0  0  0  0  0  0  0  0  0  0  0  0
   16.9287  -14.8272    0.0000 C   0  0  0  0  0  0  0  0  0  0  0  0
   14.5044  -12.0566    0.0000 N   0  0  0  0  0  0  0  0  0  0  0  0
   13.3268  -12.7492    0.0000 C   0  0  0  0  0  0  0  0  0  0  0  0
   13.3268  -14.1346    0.0000 C   0  0  0  0  0  0  0  0  0  0  0  0
   14.5044  -14.8272    0.0000 C   0  0  0  0  0  0  0  0  0  0  0  0
   14.5044  -16.2126    0.0000 N   0  0  0  0  0  0  0  0  0  0  0  0
   15.6819  -16.9053    0.0000 C   0  0  0  0  0  0  0  0  0  0  0  0
   12.1493  -14.8272    0.0000 C   0  0  0  0  0  0  0  0  0  0  0  0
   10.9025  -15.5199    0.0000 N   0  0  0  0  0  0  0  0  0  0  0  0
   16.8594  -16.2126    0.0000 C   0  0  0  0  0  0  0  0  0  0  0  0
   18.1063  -16.9053    0.0000 C   0  0  0  0  0  0  0  0  0  0  0  0
   18.1063  -18.2906    0.0000 C   0  0  0  0  0  0  0  0  0  0  0  0
   16.9287  -18.9833    0.0000 C   0  0  0  0  0  0  0  0  0  0  0  0
   15.6819  -18.2906    0.0000 C   0  0  0  0  0  0  0  0  0  0  0  0
   19.2838  -18.9833    0.0000 F   0  0  0  0  0  0  0  0  0  0  0  0
   16.9287  -20.3686    0.0000 Cl  0  0  0  0  0  0  0  0  0  0  0  0
   19.3434  -12.0416    0.0000 O   0  0  0  0  0  0  0  0  0  0  0  0
   19.3434  -10.6416    0.0000 C   0  0  0  0  0  0  0  0  0  0  0  0
   20.5388   -9.9512    0.0000 C   0  0  0  0  0  0  0  0  0  0  0  0
   19.3417  -14.8413    0.0000 N   0  0  0  0  0  0  0  0  0  0  0  0
   20.5356  -14.1455    0.0000 C   0  0  0  0  0  0  0  0  0  0  0  0
   21.7291  -14.8282    0.0000 C   0  0  0  0  0  0  0  0  0  0  0  0
   20.5300  -12.7401    0.0000 O   0  0  0  0  0  0  0  0  0  0  0  0
   22.9119  -14.1390    0.0000 C   0  0  0  0  0  0  0  0  0  0  0  0
   24.1110  -14.8250    0.0000 C   0  0  0  0  0  0  0  0  0  0  0  0
   25.2910  -14.1374    0.0000 N   0  0  0  0  0  0  0  0  0  0  0  0
   26.4914  -14.8243    0.0000 C   0  0  0  0  0  0  0  0  0  0  0  0
   25.2854  -12.7401    0.0000 C   0  0  0  0  0  0  0  0  0  0  0  0
  1  2  2  0     0  0
  2  3  1  0     0  0
  3  4  2  0     0  0
  4  5  1  0     0  0
  5  6  2  0     0  0
  1  6  1  0     0  0
  4  7  1  0     0  0
  7  8  2  0     0  0
  8  9  1  0     0  0
  9 10  2  0     0  0
  5 10  1  0     0  0
 10 11  1  0     0  0
 11 12  1  0     0  0
  9 13  1  0     0  0
 13 14  3  0     0  0
 12 15  2  0     0  0
 15 16  1  0     0  0
 16 17  2  0     0  0
 17 18  1  0     0  0
 18 19  2  0     0  0
 12 19  1  0     0  0
 17 20  1  0     0  0
 18 21  1  0     0  0
  2 22  1  0     0  0
 22 23  1  0     0  0
 23 24  1  0     0  0
  1 25  1  0     0  0
 25 26  1  0     0  0
 26 27  1  0     0  0
 26 28  2  0     0  0
 27 29  2  0     0  0
 29 30  1  0     0  0
 30 31  1  0     0  0
 31 32  1  0     0  0
 31 33  1  0     0  0
M  END
