7597-83-3.mol
     RDKit          2D

 36 35  0  0  1  0  0  0  0  0999 V2000
    9.7943    5.7346    0.0000 P   0  0  0  0  0  0  0  0  0  0  0  0
    8.6420    5.0693    0.0000 O   0  0  0  0  0  0  0  0  0  0  0  0
   -1.7284    7.0651    0.0000 O   0  0  0  0  0  0  0  0  0  0  0  0
   -6.3375    5.7346    0.0000 O   0  0  0  0  0  0  0  0  0  0  0  0
   -5.1853    3.7388    0.0000 O   0  0  0  0  0  0  0  0  0  0  0  0
   -6.3375   -2.2486    0.0000 O   0  0  0  0  0  0  0  0  0  0  0  0
   10.9466    6.3998    0.0000 O   0  0  0  0  0  0  0  0  0  0  0  0
    9.1291    6.8868    0.0000 O   0  0  0  0  0  0  0  0  0  0  0  0
   -7.4897   -0.2528    0.0000 O   0  0  0  0  0  0  0  0  0  0  0  0
   -9.7943    5.0693    0.0000 O   0  0  0  0  0  0  0  0  0  0  0  0
   -8.6421   -4.9096    0.0000 O   0  0  0  0  0  0  0  0  0  0  0  0
   -0.5762    5.0693    0.0000 N   0  0  0  0  0  0  0  0  0  0  0  0
   -4.0329    5.7346    0.0000 N   0  0  0  0  0  0  0  0  0  0  0  0
   -5.1853   -0.2528    0.0000 N   0  0  0  0  0  0  0  0  0  0  0  0
   -2.8806    5.0693    0.0000 C   0  0  0  0  0  0  0  0  0  0  0  0
   -2.8806    3.7388    0.0000 C   0  0  0  0  0  0  0  0  0  0  0  0
    2.8807    5.7346    0.0000 C   0  0  0  0  0  0  0  0  0  0  0  0
    4.0329    5.0693    0.0000 C   0  0  0  0  0  0  0  0  0  0  0  0
    1.7284    5.0693    0.0000 C   0  0  0  0  0  0  0  0  0  0  0  0
   -4.0329    3.0735    0.0000 C   0  0  0  0  0  0  0  0  0  0  0  0
    5.1853    5.7346    0.0000 C   0  0  0  0  0  0  0  0  0  0  0  0
    0.5762    5.7346    0.0000 C   0  0  0  0  0  0  0  0  0  0  0  0
   -4.0329    1.7430    0.0000 C   0  0  0  0  0  0  0  0  0  0  0  0
   -1.7284    5.7346    0.0000 C   0  0  0  0  0  0  0  0  0  0  0  0
    6.3375    5.0693    0.0000 C   0  0  0  0  0  0  0  0  0  0  0  0
   -5.1853    1.0777    0.0000 C   0  0  0  0  0  0  0  0  0  0  0  0
    7.4897    5.7346    0.0000 C   0  0  0  0  0  0  0  0  0  0  0  0
   -5.1853    5.0693    0.0000 C   0  0  0  0  0  0  0  0  0  0  0  0
   -6.3375   -0.9181    0.0000 C   0  0  0  0  0  0  0  0  0  0  0  0
   10.4596    4.5823    0.0000 C   0  0  0  0  0  0  0  0  0  0  0  0
   -7.4897    5.0693    0.0000 C   0  0  0  0  0  0  0  0  0  0  0  0
   -8.6421    5.7346    0.0000 C   0  0  0  0  0  0  0  0  0  0  0  0
   -7.4897   -2.9139    0.0000 C   0  0  0  0  0  0  0  0  0  0  0  0
   -7.4897   -4.2444    0.0000 C   0  0  0  0  0  0  0  0  0  0  0  0
  -10.9466    5.7346    0.0000 C   0  0  0  0  0  0  0  0  0  0  0  0
   -8.6421   -6.2402    0.0000 C   0  0  0  0  0  0  0  0  0  0  0  0
  1  2  1  0
  1  7  1  0
  1  8  2  0
  1 30  1  0
  2 27  1  0
  3 24  2  0
  4 28  1  0
  4 31  1  0
  5 28  2  0
  6 29  1  0
  6 33  1  0
  9 29  2  0
 10 32  1  0
 10 35  1  0
 11 34  1  0
 11 36  1  0
 12 22  1  0
 12 24  1  0
 15 13  1  0
 13 28  1  0
 14 26  1  0
 14 29  1  0
 15 16  1  6
 15 24  1  0
 16 20  1  0
 17 18  1  0
 17 19  1  0
 18 21  1  0
 19 22  1  0
 20 23  1  0
 21 25  1  0
 23 26  1  0
 25 27  1  0
 31 32  1  0
 33 34  1  0
V    1 0
V    2 1
V    3 2
V    4 3
V    5 4
V    6 5
V    7 6
V    8 7
V    9 8
V   10 9
V   11 10
V   12 11
V   13 12
V   14 13
V   15 14
V   16 15
V   17 16
V   18 17
V   19 18
V   20 19
V   21 20
V   22 21
V   23 22
V   24 23
V   25 24
V   26 25
V   27 26
V   28 27
V   29 28
V   30 29
V   31 30
V   32 31
V   33 32
V   34 33
V   35 34
V   36 35
M  END
