25022239
     RDKit          2D

 12 12  0  0  0  0  0  0  0  0999 V2000
    4.2601    1.3294    0.0000 O   0  0  0  0  0  0  0  0  0  0  0  0
    2.0000    0.0693    0.0000 O   0  0  0  0  0  0  0  0  0  0  0  0
    5.5202    0.0693    0.0000 O   0  0  0  0  0  0  0  0  0  0  0  0
    2.8940   -1.7094    0.0000 O   0  0  0  0  0  0  0  0  0  0  0  0
    3.7601   -0.2094    0.0000 N   0  0  0  0  0  0  0  0  0  0  0  0
    4.6261   -1.7094    0.0000 N   0  0  0  0  0  0  0  0  0  0  0  0
    3.2601    1.3294    0.0000 C   0  0  0  0  0  0  0  0  0  0  0  0
    2.9511    0.3784    0.0000 C   0  0  0  0  0  0  0  0  0  0  0  0
    3.2601    2.3294    0.0000 C   0  0  0  0  0  0  0  0  0  0  0  0
    2.3090    1.6384    0.0000 C   0  0  0  0  0  0  0  0  0  0  0  0
    4.5691    0.3784    0.0000 C   0  0  0  0  0  0  0  0  0  0  0  0
    3.7601   -1.2094    0.0000 C   0  0  0  0  0  0  0  0  0  0  0  0
  1  7  1  0
  1 11  1  0
  2  8  2  0
  3 11  2  0
  4 12  2  0
  5  8  1  0
  5 11  1  0
  5 12  1  0
  6 12  1  0
  7  8  1  0
  7  9  1  0
  7 10  1  0
M  END
