782471-80-1.mol
     RDKit          2D

 29 26  0  0  0  0  0  0  0  0999 V2000
    0.5553    1.7286    0.0000 C   0  0  0  0  0  0  0  0  0  0  0  0
    0.1468    2.4340    0.0000 C   0  0  0  0  0  0  0  0  0  0  0  0
    0.1468    1.0073    0.0000 C   0  0  0  0  0  0  0  0  0  0  0  0
    1.3903    1.7286    0.0000 S   0  0  0  0  0  0  0  0  0  0  0  0
   -0.6762    2.4340    0.0000 C   0  0  0  0  0  0  0  0  0  0  0  0
   -0.6762    1.0073    0.0000 C   0  0  0  0  0  0  0  0  0  0  0  0
    1.4002    2.5138    0.0000 O   0  0  0  0  0  0  0  0  0  0  0  0
    1.4002    0.8697    0.0000 O   0  0  0  0  0  0  0  0  0  0  0  0
    2.2153    1.7286    0.0000 O   0  0  0  0  0  0  0  0  0  0  0  0
   -1.0967    1.7286    0.0000 C   0  0  0  0  0  0  0  0  0  0  0  0
   -1.0967    3.1534    0.0000 O   0  0  0  0  0  0  0  0  0  0  0  0
   -1.9217    1.7286    0.0000 O   0  0  0  0  0  0  0  0  0  0  0  0
   -1.9077    3.0020    0.0000 C   0  0  0  0  0  0  0  0  0  0  0  0
    2.7693    3.2092    0.0000 K   0  0  0  0  0 15  0  0  0  0  0  0
   -0.2923   -2.3503    0.0000 C   0  0  0  0  0  0  0  0  0  0  0  0
   -0.7008   -1.6449    0.0000 C   0  0  0  0  0  0  0  0  0  0  0  0
   -0.7008   -3.0717    0.0000 C   0  0  0  0  0  0  0  0  0  0  0  0
    0.5427   -2.3503    0.0000 S   0  0  0  0  0  0  0  0  0  0  0  0
   -1.5238   -1.6449    0.0000 C   0  0  0  0  0  0  0  0  0  0  0  0
   -1.5238   -3.0717    0.0000 C   0  0  0  0  0  0  0  0  0  0  0  0
    0.5526   -1.5652    0.0000 O   0  0  0  0  0  0  0  0  0  0  0  0
    0.5526   -3.2092    0.0000 O   0  0  0  0  0  0  0  0  0  0  0  0
    1.3677   -2.3503    0.0000 O   0  0  0  0  0  0  0  0  0  0  0  0
   -1.9443   -2.3503    0.0000 C   0  0  0  0  0  0  0  0  0  0  0  0
   -1.9443   -0.9255    0.0000 O   0  0  0  0  0  0  0  0  0  0  0  0
   -2.7693   -2.3503    0.0000 O   0  0  0  0  0  0  0  0  0  0  0  0
   -2.7553   -1.0770    0.0000 C   0  0  0  0  0  0  0  0  0  0  0  0
    1.9217   -0.8697    0.0000 K   0  0  0  0  0 15  0  0  0  0  0  0
   -0.1931   -0.1443    0.0000 O   0  0  0  0  0  0  0  0  0  0  0  0
  1  2  2  0
  1  3  1  0
  1  4  1  0
  2  5  1  0
  3  6  2  0
  4  7  2  0
  4  8  2  0
  4  9  1  0
  5 11  1  0
  5 10  2  0
  6 10  1  0
 10 12  1  0
 11 13  1  0
 15 16  2  0
 15 17  1  0
 15 18  1  0
 16 19  1  0
 17 20  2  0
 18 21  2  0
 18 22  2  0
 18 23  1  0
 19 24  2  0
 19 25  1  0
 20 24  1  0
 24 26  1  0
 25 27  1  0
M  CHG  4   9  -1  14   1  23  -1  28   1
M  END
