 
     RDKit          2D

173181  0  0  1  0  0  0  0  0999 V2000
   34.8600  -21.1400    0.0000 C   0  0  0  0  0  0  0  0  0  0  0  0
   34.8600  -22.5400    0.0000 C   0  0  0  0  0  0  0  0  0  0  0  0
   33.6700  -23.2400    0.0000 C   0  0  0  0  0  0  0  0  0  0  0  0
   32.4800  -22.5400    0.0000 C   0  0  0  0  0  0  0  0  0  0  0  0
   32.4800  -21.1400    0.0000 C   0  0  0  0  0  0  0  0  0  0  0  0
   33.6700  -20.4400    0.0000 C   0  0  0  0  0  0  0  0  0  0  0  0
   31.2200  -23.2400    0.0000 C   0  0  0  0  0  0  0  0  0  0  0  0
   30.0300  -22.5400    0.0000 C   0  0  0  0  0  0  0  0  0  0  0  0
   30.0300  -21.1400    0.0000 C   0  0  0  0  0  0  0  0  0  0  0  0
   31.2200  -20.4400    0.0000 O   0  0  0  0  0  0  0  0  0  0  0  0
   36.1200  -20.4400    0.0000 O   0  0  0  0  0  0  0  0  0  0  0  0
   33.6700  -24.6400    0.0000 O   0  0  0  0  0  0  0  0  0  0  0  0
   31.2200  -24.6400    0.0000 O   0  0  0  0  0  0  0  0  0  0  0  0
   28.8400  -20.4400    0.0000 C   0  0  0  0  0  0  0  0  0  0  0  0
   27.6500  -21.1400    0.0000 C   0  0  0  0  0  0  0  0  0  0  0  0
   26.3900  -20.4400    0.0000 C   0  0  0  0  0  0  0  0  0  0  0  0
   26.3900  -19.0400    0.0000 C   0  0  0  0  0  0  0  0  0  0  0  0
   27.5800  -18.3400    0.0000 C   0  0  0  0  0  0  0  0  0  0  0  0
   28.8400  -19.0400    0.0000 C   0  0  0  0  0  0  0  0  0  0  0  0
   27.5800  -16.9400    0.0000 O   0  0  0  0  0  0  0  0  0  0  0  0
   25.2000  -18.2700    0.0000 O   0  0  0  0  0  0  0  0  0  0  0  0
   25.2000  -21.1400    0.0000 O   0  0  0  0  0  0  0  0  0  0  0  0
   23.9400  -21.8400    0.0000 C   0  0  0  0  0  0  0  0  0  0  0  0
   23.9400  -23.2400    0.0000 C   0  0  0  0  0  0  0  0  0  0  0  0
   22.7500  -23.9400    0.0000 C   0  0  0  0  0  0  0  0  0  0  0  0
   21.5600  -23.2400    0.0000 C   0  0  0  0  0  0  0  0  0  0  0  0
   21.5600  -21.8400    0.0000 C   0  0  0  0  0  0  0  0  0  0  0  0
   22.7500  -21.1400    0.0000 O   0  0  0  0  0  0  0  0  0  0  0  0
   22.7500  -25.3400    0.0000 O   0  0  0  0  0  0  0  0  0  0  0  0
   20.3000  -21.1400    0.0000 C   0  0  0  0  0  0  0  0  0  0  0  0
   25.1300  -23.9400    0.0000 O   0  0  0  0  0  0  0  0  0  0  0  0
   20.3000  -23.9400    0.0000 O   0  0  0  0  0  0  0  0  0  0  0  0
   19.1100  -21.8400    0.0000 O   0  0  0  0  0  0  0  0  0  0  0  0
   13.0900  -16.9400    0.0000 C   0  0  0  0  0  0  0  0  0  0  0  0
   13.0900  -18.3400    0.0000 C   0  0  0  0  0  0  0  0  0  0  0  0
   14.3024  -19.0400    0.0000 N   0  0  0  0  0  0  0  0  0  0  0  0
   15.5149  -18.3400    0.0000 C   0  0  0  0  0  0  0  0  0  0  0  0
   15.5149  -16.9400    0.0000 N   0  0  0  0  0  0  0  0  0  0  0  0
   14.3024  -16.2400    0.0000 C   0  0  0  0  0  0  0  0  0  0  0  0
   11.7585  -16.5074    0.0000 N   0  0  0  0  0  0  0  0  0  0  0  0
   10.9356  -17.6400    0.0000 C   0  0  0  0  0  0  0  0  0  0  0  0
   11.7585  -18.7726    0.0000 N   0  0  0  0  0  0  0  0  0  0  0  0
   14.3024  -14.8402    0.0000 N   0  0  0  0  0  0  0  0  0  0  0  0
    6.1600  -12.6700    0.0000 C   0  0  0  0  0  0  0  0  0  0  0  0
    7.3724  -11.9700    0.0000 N   0  0  0  0  0  0  0  0  0  0  0  0
    8.5849  -12.6700    0.0000 C   0  0  0  0  0  0  0  0  0  0  0  0
    9.7973  -11.9700    0.0000 C   0  0  0  0  0  0  0  0  0  0  0  0
   11.0097  -12.6700    0.0000 O   0  0  0  0  0  0  0  0  0  0  0  0
    7.3724  -10.5702    0.0000 C   0  0  0  0  0  0  0  0  0  0  0  0
    7.3724  -13.3700    0.0000 C   0  0  0  0  0  0  0  0  0  0  0  0
   32.1459  -16.1618    0.0000 C   0  0  0  0  0  0  0  0  0  0  0  0
   32.1459  -17.5562    0.0000 C   0  0  0  0  0  0  0  0  0  0  0  0
   33.4008  -18.2534    0.0000 C   0  0  0  0  0  0  0  0  0  0  0  0
   34.6558  -17.5562    0.0000 C   0  0  0  0  0  0  0  0  0  0  0  0
   34.6558  -16.1618    0.0000 C   0  0  0  0  0  0  0  0  0  0  0  0
   33.4008  -15.4646    0.0000 C   0  0  0  0  0  0  0  0  0  0  0  0
   35.8410  -15.4646    0.0000 O   0  0  0  0  0  0  0  0  0  0  0  0
   33.4008  -19.6478    0.0000 O   0  0  0  0  0  0  0  0  0  0  0  0
   35.8410  -14.0702    0.0000 C   0  0  0  0  0  0  0  0  0  0  0  0
   32.1459  -20.4147    0.0000 C   0  0  0  0  0  0  0  0  0  0  0  0
   35.8410  -18.2534    0.0000 O   0  0  0  0  0  0  0  0  0  0  0  0
   30.9606  -15.4646    0.0000 C   0  0  0  0  0  0  0  0  0  0  0  0
   29.7754  -16.1618    0.0000 C   0  0  0  0  0  0  0  0  0  0  0  0
   28.5902  -15.4646    0.0000 C   0  0  0  0  0  0  0  0  0  0  0  0
   37.0486  -18.9506    0.0000 C   0  0  0  0  0  0  0  0  0  0  0  0
   37.0486  -20.3448    0.0000 O   0  0  0  0  0  0  0  0  0  0  0  0
   38.2562  -21.0420    0.0000 C   0  0  0  0  0  0  0  0  0  0  0  0
   39.4637  -20.3448    0.0000 C   0  0  0  0  0  0  0  0  0  0  0  0
   39.4637  -18.9506    0.0000 C   0  0  0  0  0  0  0  0  0  0  0  0
   38.2562  -18.2534    0.0000 C   0  0  0  0  0  0  0  0  0  0  0  0
   38.2562  -22.4364    0.0000 C   0  0  0  0  0  0  0  0  0  0  0  0
   39.4826  -23.1446    0.0000 O   0  0  0  0  0  0  0  0  0  0  0  0
   40.6734  -21.0432    0.0000 O   0  0  0  0  0  0  0  0  0  0  0  0
   40.6734  -18.2522    0.0000 O   0  0  0  0  0  0  0  0  0  0  0  0
   38.2562  -16.8592    0.0000 O   0  0  0  0  0  0  0  0  0  0  0  0
   28.5902  -14.0646    0.0000 O   0  0  0  0  0  0  0  0  0  0  0  0
   29.0884  -18.0392    0.0000 O   0  0  0  0  0  0  0  0  0  0  0  0
   27.8633  -19.1128    0.0000 C   0  0  0  0  0  0  0  0  0  0  0  0
   26.6507  -18.4260    0.0000 O   0  0  0  0  0  0  0  0  0  0  0  0
   27.8782  -20.5079    0.0000 C   0  0  0  0  0  0  0  0  0  0  0  0
   25.4610  -19.1320    0.0000 C   0  0  0  0  0  0  0  0  0  0  0  0
   26.6755  -21.2134    0.0000 C   0  0  0  0  0  0  0  0  0  0  0  0
   29.0928  -21.1918    0.0000 O   0  0  0  0  0  0  0  0  0  0  0  0
   25.4658  -20.5214    0.0000 C   0  0  0  0  0  0  0  0  0  0  0  0
   24.2412  -18.4453    0.0000 C   0  0  0  0  0  0  0  0  0  0  0  0
   26.6904  -22.6086    0.0000 O   0  0  0  0  0  0  0  0  0  0  0  0
   24.2661  -21.2329    0.0000 O   0  0  0  0  0  0  0  0  0  0  0  0
   23.0500  -19.1486    0.0000 O   0  0  0  0  0  0  0  0  0  0  0  0
   25.3596  -17.0784    0.0000 C   0  0  0  0  0  0  0  0  0  0  0  0
   26.5571  -16.3860    0.0000 C   0  0  0  0  0  0  0  0  0  0  0  0
   24.1621  -16.3860    0.0000 O   0  0  0  0  0  0  0  0  0  0  0  0
   27.8763  -15.9603    0.0000 C   0  0  0  0  0  0  0  0  0  0  0  0
   29.0855  -16.6550    0.0000 C   0  0  0  0  0  0  0  0  0  0  0  0
   27.8821  -14.5651    0.0000 C   0  0  0  0  0  0  0  0  0  0  0  0
   30.2820  -15.9603    0.0000 O   0  0  0  0  0  0  0  0  0  0  0  0
   26.5512  -14.1265    0.0000 C   0  0  0  0  0  0  0  0  0  0  0  0
   29.0855  -13.8705    0.0000 C   0  0  0  0  0  0  0  0  0  0  0  0
   25.7280  -15.2655    0.0000 C   0  0  0  0  0  0  0  0  0  0  0  0
   30.2820  -14.5709    0.0000 C   0  0  0  0  0  0  0  0  0  0  0  0
   26.1197  -12.8014    0.0000 O   0  0  0  0  0  0  0  0  0  0  0  0
   25.9976  -14.7419    0.0000 C   0  0  0  0  0  0  0  0  0  0  0  0
   25.9976  -13.3622    0.0000 C   0  0  0  0  0  0  0  0  0  0  0  0
   27.1768  -15.4435    0.0000 C   0  0  0  0  0  0  0  0  0  0  0  0
   24.6830  -15.1661    0.0000 C   0  0  0  0  0  0  0  0  0  0  0  0
   27.1768  -12.6840    0.0000 C   0  0  0  0  0  0  0  0  0  0  0  0
   24.6889  -12.9496    0.0000 C   0  0  0  0  0  0  0  0  0  0  0  0
   27.1523  -17.5073    0.0000 O   0  0  0  0  0  0  0  0  0  0  0  0
   28.3737  -14.7419    0.0000 O   0  0  0  0  0  0  0  0  0  0  0  0
   23.8872  -14.0464    0.0000 C   0  0  0  0  0  0  0  0  0  0  0  0
   24.2518  -16.4573    0.0000 C   0  0  0  0  0  0  0  0  0  0  0  0
   28.3737  -13.3622    0.0000 C   0  0  0  0  0  0  0  0  0  0  0  0
   27.1711  -11.3231    0.0000 C   0  0  0  0  0  0  0  0  0  0  0  0
   25.8973  -18.5561    0.0000 C   0  0  0  0  0  0  0  0  0  0  0  0
   28.3562  -10.6446    0.0000 O   0  0  0  0  0  0  0  0  0  0  0  0
   25.9860  -10.6505    0.0000 O   0  0  0  0  0  0  0  0  0  0  0  0
   24.7063  -17.8849    0.0000 O   0  0  0  0  0  0  0  0  0  0  0  0
   25.8973  -19.9241    0.0000 C   0  0  0  0  0  0  0  0  0  0  0  0
   23.5269  -18.5689    0.0000 C   0  0  0  0  0  0  0  0  0  0  0  0
   24.7063  -20.6083    0.0000 C   0  0  0  0  0  0  0  0  0  0  0  0
   27.0824  -20.6083    0.0000 O   0  0  0  0  0  0  0  0  0  0  0  0
   23.5269  -19.9241    0.0000 C   0  0  0  0  0  0  0  0  0  0  0  0
   22.3535  -17.8849    0.0000 C   0  0  0  0  0  0  0  0  0  0  0  0
   24.7063  -21.9705    0.0000 O   0  0  0  0  0  0  0  0  0  0  0  0
   22.3535  -20.6083    0.0000 O   0  0  0  0  0  0  0  0  0  0  0  0
   21.3165  -18.7566    0.0000 O   0  0  0  0  0  0  0  0  0  0  0  0
   22.8867  -16.7360    0.0000 O   0  0  0  0  0  0  0  0  0  0  0  0
   16.9400  -13.4400    0.0000 O   0  0  0  0  0  0  0  0  0  0  0  0
   18.1524  -12.7400    0.0000 C   0  0  0  0  0  0  0  0  0  0  0  0
   19.3649  -13.4400    0.0000 C   0  0  0  0  0  0  0  0  0  0  0  0
   20.5773  -12.7400    0.0000 C   0  0  0  0  0  0  0  0  0  0  0  0
   21.7897  -13.4400    0.0000 C   0  0  0  0  0  0  0  0  0  0  0  0
   23.0022  -12.7400    0.0000 O   0  0  0  0  0  0  0  0  0  0  0  0
   18.1524  -11.3402    0.0000 O   0  0  0  0  0  0  0  0  0  0  0  0
   21.7897  -14.8399    0.0000 O   0  0  0  0  0  0  0  0  0  0  0  0
   17.6556  -18.6914    0.0000 C   0  0  0  0  0  0  0  0  0  0  0  0
   17.6556  -20.1003    0.0000 C   0  0  0  0  0  0  0  0  0  0  0  0
   18.8757  -20.8047    0.0000 C   0  0  0  0  0  0  0  0  0  0  0  0
   20.0958  -20.1003    0.0000 C   0  0  0  0  0  0  0  0  0  0  0  0
   20.0958  -18.6914    0.0000 C   0  0  0  0  0  0  0  0  0  0  0  0
   18.8757  -17.9870    0.0000 C   0  0  0  0  0  0  0  0  0  0  0  0
   21.3159  -20.8047    0.0000 C   0  0  0  0  0  0  0  0  0  0  0  0
   22.5360  -18.6914    0.0000 C   0  0  0  0  0  0  0  0  0  0  0  0
   21.3159  -17.9870    0.0000 C   0  0  0  0  0  0  0  0  0  0  0  0
   23.7412  -17.9955    0.0000 C   0  0  0  0  0  0  0  0  0  0  0  0
   24.9370  -18.6859    0.0000 C   0  0  0  0  0  0  0  0  0  0  0  0
   20.0958  -17.2825    0.0000 C   0  0  0  0  0  0  0  0  0  0  0  0
   17.6556  -17.2825    0.0000 C   0  0  0  0  0  0  0  0  0  0  0  0
   26.1354  -17.9939    0.0000 C   0  0  0  0  0  0  0  0  0  0  0  0
   23.7413  -16.5784    0.0000 C   0  0  0  0  0  0  0  0  0  0  0  0
   27.3325  -18.6851    0.0000 C   0  0  0  0  0  0  0  0  0  0  0  0
   28.5301  -17.9935    0.0000 C   0  0  0  0  0  0  0  0  0  0  0  0
   29.7278  -18.6849    0.0000 C   0  0  0  0  0  0  0  0  0  0  0  0
   30.9252  -17.9933    0.0000 C   0  0  0  0  0  0  0  0  0  0  0  0
   32.1229  -18.6849    0.0000 O   0  0  0  0  0  0  0  0  0  0  0  0
   28.5302  -16.5783    0.0000 C   0  0  0  0  0  0  0  0  0  0  0  0
   23.9870  -16.3736    0.0000 N   0  0  0  0  0  0  0  0  0  0  0  0
   24.9737  -17.3720    0.0000 C   0  0  0  0  0  0  0  0  0  0  0  0
   22.7728  -15.6789    0.0000 C   0  0  0  0  0  0  0  0  0  0  0  0
   24.6294  -15.1302    0.0000 C   0  0  0  0  0  0  0  0  0  0  0  0
   26.2173  -16.7415    0.0000 C   0  0  0  0  0  0  0  0  0  0  0  0
   24.9619  -18.7498    0.0000 C   0  0  0  0  0  0  0  0  0  0  0  0
   21.5643  -16.3853    0.0000 C   0  0  0  0  0  0  0  0  0  0  0  0
   26.0070  -15.3578    0.0000 S   0  0  0  0  0  0  0  0  0  0  0  0
   27.4608  -17.3777    0.0000 C   0  0  0  0  0  0  0  0  0  0  0  0
   21.5643  -17.7864    0.0000 C   0  0  0  0  0  0  0  0  0  0  0  0
   20.3384  -15.6847    0.0000 C   0  0  0  0  0  0  0  0  0  0  0  0
   28.6342  -16.6247    0.0000 C   0  0  0  0  0  0  0  0  0  0  0  0
   20.3384  -18.5046    0.0000 N   0  0  0  0  0  0  0  0  0  0  0  0
   22.7728  -18.4929    0.0000 N   0  0  0  0  0  0  0  0  0  0  0  0
   19.1357  -16.3853    0.0000 N   0  0  0  0  0  0  0  0  0  0  0  0
   29.8777  -17.2611    0.0000 O   0  0  0  0  0  0  0  0  0  0  0  0
   19.1357  -17.7864    0.0000 C   0  0  0  0  0  0  0  0  0  0  0  0
   17.9272  -18.4870    0.0000 C   0  0  0  0  0  0  0  0  0  0  0  0
  1  2  2  0
  2  3  1  0
  3  4  2  0
  4  5  1  0
  5  6  2  0
  1  6  1  0
  4  7  1  0
  7  8  1  0
  8  9  1  0
  9 10  1  0
  5 10  1  0
  1 11  1  0
  3 12  1  0
  7 13  2  0
  9 14  1  1
 14 15  2  0
 15 16  1  0
 16 17  2  0
 17 18  1  0
 18 19  2  0
 14 19  1  0
 18 20  1  0
 17 21  1  0
 16 22  1  0
 23 22  1  1
 23 24  1  0
 24 25  1  0
 25 26  1  0
 26 27  1  0
 27 28  1  0
 23 28  1  0
 25 29  1  1
 27 30  1  1
 24 31  1  6
 26 32  1  6
 30 33  1  0
 34 35  1  0
 35 36  2  0
 36 37  1  0
 37 38  2  0
 38 39  1  0
 34 39  2  0
 34 40  1  0
 40 41  2  0
 41 42  1  0
 35 42  1  0
 39 43  1  0
 44 45  1  0
 45 46  1  0
 46 47  1  0
 47 48  1  0
 45 49  1  0
 45 50  1  0
 51 52  2  0
 52 53  1  0
 53 54  2  0
 54 55  1  0
 55 56  2  0
 51 56  1  0
 55 57  1  0
 53 58  1  0
 57 59  1  0
 58 60  1  0
 54 61  1  0
 51 62  1  0
 62 63  2  0
 63 64  1  0
 65 61  1  1
 65 66  1  0
 66 67  1  0
 67 68  1  0
 68 69  1  0
 69 70  1  0
 65 70  1  0
 67 71  1  1
 71 72  1  0
 68 73  1  6
 69 74  1  1
 70 75  1  6
 64 76  1  0
 78 79  1  0
 89 90  1  0
 78 80  1  0
 89 91  1  0
 79 81  1  0
 80 82  1  0
 80 83  1  6
 81 84  1  0
 81 85  1  1
 82 86  1  1
 84 87  1  6
 82 84  1  0
 85 88  1  0
 78 77  1  1
 92 93  1  0
 92 94  1  0
 92 90  1  6
 93 95  1  0
 94 96  1  0
 94 97  1  6
 90 98  2  0
 95 99  1  0
 96100  1  1
 96 98  1  0
 97 99  2  0
 93 77  1  1
101102  1  0
101103  1  0
101104  1  6
102105  1  0
102106  1  6
103107  1  1
103108  1  0
104109  2  0
104110  1  0
105111  2  0
105112  1  0
113107  1  1
112114  1  0
112115  2  0
113116  1  0
113117  1  0
116118  1  0
117119  1  0
117120  1  6
118121  1  0
118122  1  1
119123  1  1
121124  1  6
122125  1  0
106109  1  0
108111  1  0
119121  1  0
110126  1  0
127128  1  0
128129  1  0
129130  1  0
130131  1  0
131132  1  0
128133  2  0
131134  2  0
135136  1  0
136137  1  0
137138  1  0
138139  2  0
139140  1  0
135140  1  0
138141  1  0
142143  2  0
139143  1  0
142144  1  0
144145  2  0
140146  1  0
140147  1  0
145148  1  0
144149  1  0
148150  2  0
150151  1  0
151152  2  0
152153  1  0
153154  1  0
151155  1  0
156157  1  0
156158  1  0
156159  2  0
157160  2  0
157161  1  0
158162  1  0
159163  1  0
160164  1  0
162165  2  0
162166  1  0
164167  1  0
165168  1  0
165169  1  0
166170  2  0
167171  1  0
168172  2  0
172173  1  0
160163  1  0
170172  1  0
M  CHG  2  45   1 156   1
M  END
