 
     RDKit          2D

 51 53  0  0  1  0  0  0  0  0999 V2000
   21.3350  -20.1498    0.0000 C   0  0  0  0  0  0  0  0  0  0  0  0
   22.7390  -20.1381    0.0000 C   0  0  0  0  0  0  0  0  0  0  0  0
   22.0311  -18.9213    0.0000 C   0  0  0  0  0  0  0  0  0  0  0  0
   20.1240  -19.4477    0.0000 C   0  0  0  0  0  0  0  0  0  0  0  0
   23.9500  -19.4420    0.0000 C   0  0  0  0  0  0  0  0  0  0  0  0
   21.3233  -17.7103    0.0000 C   0  0  0  0  0  0  0  0  0  0  0  0
   22.7273  -17.7103    0.0000 C   0  0  0  0  0  0  0  0  0  0  0  0
   18.9130  -20.1440    0.0000 C   0  0  0  0  0  0  0  0  0  0  0  0
   25.1551  -20.1381    0.0000 O   0  0  0  0  0  0  0  0  0  0  0  0
   23.9500  -18.0379    0.0000 O   0  0  0  0  0  0  0  0  0  0  0  0
   18.9072  -21.5481    0.0000 C   0  0  0  0  0  0  0  0  0  0  0  0
   17.7079  -19.4477    0.0000 C   0  0  0  0  0  0  0  0  0  0  0  0
   26.3720  -19.4420    0.0000 C   0  0  0  0  0  0  0  0  0  0  0  0
   27.7701  -19.4420    0.0000 C   0  0  0  0  0  0  0  0  0  0  0  0
   25.9390  -18.1081    0.0000 C   0  0  0  0  0  0  0  0  0  0  0  0
   28.2088  -18.1081    0.0000 C   0  0  0  0  0  0  0  0  0  0  0  0
   28.5950  -20.5710    0.0000 C   0  0  0  0  0  0  0  0  0  0  0  0
   27.0739  -17.2833    0.0000 C   0  0  0  0  0  0  0  0  0  0  0  0
   29.4141  -17.4061    0.0000 C   0  0  0  0  0  0  0  0  0  0  0  0
   27.0739  -15.8850    0.0000 O   0  0  0  0  0  0  0  0  0  0  0  0
   30.6191  -18.1022    0.0000 C   0  0  0  0  0  0  0  0  0  0  0  0
   31.8301  -17.4061    0.0000 C   0  0  0  0  0  0  0  0  0  0  0  0
   31.8327  -16.0065    0.0000 C   0  0  0  0  0  0  0  0  0  0  0  0
   33.0462  -15.3089    0.0000 C   0  0  0  0  0  0  0  0  0  0  0  0
   22.5359  -20.1925    0.0000 C   0  0  0  0  0  0  0  0  0  0  0  0
   23.9402  -20.1808    0.0000 C   0  0  0  0  0  0  0  0  0  0  0  0
   23.2321  -18.9638    0.0000 C   0  0  0  0  0  0  0  0  0  0  0  0
   21.3247  -19.4903    0.0000 C   0  0  0  0  0  0  0  0  0  0  0  0
   25.1514  -19.4846    0.0000 C   0  0  0  0  0  0  0  0  0  0  0  0
   22.5242  -17.7526    0.0000 C   0  0  0  0  0  0  0  0  0  0  0  0
   23.9285  -17.7526    0.0000 C   0  0  0  0  0  0  0  0  0  0  0  0
   20.1135  -20.1867    0.0000 C   0  0  0  0  0  0  0  0  0  0  0  0
   26.3566  -20.1808    0.0000 O   0  0  0  0  0  0  0  0  0  0  0  0
   25.1514  -18.0803    0.0000 O   0  0  0  0  0  0  0  0  0  0  0  0
   20.1077  -21.5910    0.0000 C   0  0  0  0  0  0  0  0  0  0  0  0
   18.9082  -19.4903    0.0000 C   0  0  0  0  0  0  0  0  0  0  0  0
   27.5738  -19.4846    0.0000 C   0  0  0  0  0  0  0  0  0  0  0  0
   28.9721  -19.4846    0.0000 C   0  0  0  0  0  0  0  0  0  0  0  0
   27.1407  -18.1505    0.0000 C   0  0  0  0  0  0  0  0  0  0  0  0
   29.4109  -18.1505    0.0000 C   0  0  0  0  0  0  0  0  0  0  0  0
   29.7971  -20.6138    0.0000 C   0  0  0  0  0  0  0  0  0  0  0  0
   28.2757  -17.3255    0.0000 C   0  0  0  0  0  0  0  0  0  0  0  0
   30.6163  -17.4484    0.0000 C   0  0  0  0  0  0  0  0  0  0  0  0
   28.2757  -15.9270    0.0000 O   0  0  0  0  0  0  0  0  0  0  0  0
   31.8216  -18.1446    0.0000 C   0  0  0  0  0  0  0  0  0  0  0  0
   33.0328  -17.4484    0.0000 C   0  0  0  0  0  0  0  0  0  0  0  0
   17.6955  -20.1847    0.0000 O   0  0  0  0  0  0  0  0  0  0  0  0
   16.4865  -19.4847    0.0000 C   0  0  0  0  0  0  0  0  0  0  0  0
   18.9110  -18.0904    0.0000 O   0  0  0  0  0  0  0  0  0  0  0  0
   33.0353  -16.0485    0.0000 C   0  0  0  0  0  0  0  0  0  0  0  0
   34.2489  -15.3508    0.0000 C   0  0  0  0  0  0  0  0  0  0  0  0
  2  5  1  6
  3  6  1  0
  3  7  1  0
  4  8  2  3
  5  9  1  0
  5 10  2  0
  8 11  1  0
  8 12  1  0
 13  9  1  1
 13 14  1  0
 13 15  1  0
 14 16  2  0
 14 17  1  0
 15 18  1  0
 16 19  1  0
 18 20  2  0
 19 21  1  0
 21 22  2  0
  2  3  1  0
 16 18  1  0
  1  2  1  0
  1  3  1  0
  1  4  1  1
 22 23  1  0
 23 24  2  0
 26 29  1  6
 27 30  1  0
 27 31  1  0
 28 32  2  0
 29 33  1  0
 29 34  2  0
 32 35  1  0
 32 36  1  0
 37 33  1  1
 37 38  1  0
 37 39  1  0
 38 40  2  0
 38 41  1  0
 39 42  1  0
 40 43  1  0
 42 44  2  0
 43 45  1  0
 45 46  2  0
 26 27  1  0
 40 42  1  0
 36 47  1  0
 25 26  1  0
 47 48  1  0
 25 27  1  0
 36 49  2  0
 25 28  1  1
 46 50  1  0
 50 51  2  0
M  END
