 
     RDKit          2D

 26 30  0  0  1  0  0  0  0  0999 V2000
   27.4371  -19.4355    0.0000 C   0  0  0  0  0  0  0  0  0  0  0  0
   27.4371  -20.8031    0.0000 C   0  0  0  0  0  0  0  0  0  0  0  0
   28.6213  -21.4868    0.0000 C   0  0  0  0  0  0  0  0  0  0  0  0
   29.8057  -20.8031    0.0000 C   0  0  0  0  0  0  0  0  0  0  0  0
   29.8057  -19.4355    0.0000 C   0  0  0  0  0  0  0  0  0  0  0  0
   28.6213  -18.7518    0.0000 C   0  0  0  0  0  0  0  0  0  0  0  0
   30.9898  -21.4868    0.0000 C   0  0  0  0  0  0  0  0  0  0  0  0
   32.1741  -20.8031    0.0000 C   0  0  0  0  0  0  0  0  0  0  0  0
   32.1741  -19.4355    0.0000 C   0  0  0  0  0  0  0  0  0  0  0  0
   30.9898  -18.7518    0.0000 C   0  0  0  0  0  0  0  0  0  0  0  0
   33.3585  -18.7518    0.0000 C   0  0  0  0  0  0  0  0  0  0  0  0
   33.3585  -17.3843    0.0000 C   0  0  0  0  0  0  0  0  0  0  0  0
   32.1741  -16.7006    0.0000 C   0  0  0  0  0  0  0  0  0  0  0  0
   30.9898  -17.3843    0.0000 C   0  0  0  0  0  0  0  0  0  0  0  0
   26.2529  -21.4868    0.0000 O   0  0  0  0  0  0  0  0  0  0  0  0
   29.8057  -18.0681    0.0000 C   0  0  0  0  0  0  0  0  0  0  0  0
   33.3585  -16.0169    0.0000 C   0  0  0  0  0  0  0  0  0  0  0  0
   35.7378  -18.7518    0.0000 C   0  0  0  0  0  0  0  0  0  0  0  0
   35.7378  -17.3843    0.0000 C   0  0  0  0  0  0  0  0  0  0  0  0
   34.5481  -16.6975    0.0000 C   0  0  0  0  0  0  0  0  0  0  0  0
   34.5483  -15.3357    0.0000 O   0  0  0  0  0  0  0  0  0  0  0  0
   35.7528  -14.6404    0.0000 C   0  0  0  0  0  0  0  0  0  0  0  0
   35.7528  -13.2666    0.0000 C   0  0  0  0  0  0  0  0  0  0  0  0
   37.0593  -15.0649    0.0000 C   0  0  0  0  0  0  0  0  0  0  0  0
   37.8668  -13.9535    0.0000 C   0  0  0  0  0  0  0  0  0  0  0  0
   37.0593  -12.8422    0.0000 C   0  0  0  0  0  0  0  0  0  0  0  0
  1  2  1  0
  2  3  1  0
  3  4  2  0
  4  5  1  0
  5  6  1  0
  1  6  2  0
  4  7  1  0
  7  8  1  0
  9  8  1  6
  9 10  1  0
  5 10  1  0
  9 11  1  0
 11 12  1  0
 12 13  1  0
 13 14  1  0
 10 14  1  1
  2 15  2  0
  5 16  1  1
 12 17  1  1
 11 18  1  1
 18 19  1  0
 19 20  1  0
 12 20  1  0
 20 21  1  1
 21 22  1  0
 22 23  1  0
 22 24  2  0
 24 25  1  0
 25 26  1  0
 23 26  1  0
M  END
