 
     RDKit          2D

 22 22  0  0  1  0  0  0  0  0999 V2000
   24.0100  -21.1400    0.0000 C   0  0  0  0  0  0  0  0  0  0  0  0
   24.0100  -22.5400    0.0000 C   0  0  0  0  0  0  0  0  0  0  0  0
   25.2000  -23.2400    0.0000 C   0  0  0  0  0  0  0  0  0  0  0  0
   26.3900  -22.5400    0.0000 C   0  0  0  0  0  0  0  0  0  0  0  0
   26.3900  -21.1400    0.0000 C   0  0  0  0  0  0  0  0  0  0  0  0
   25.2000  -20.4400    0.0000 C   0  0  0  0  0  0  0  0  0  0  0  0
   27.6500  -20.4400    0.0000 C   0  0  0  0  0  0  0  0  0  0  0  0
   28.8400  -21.1400    0.0000 C   0  0  0  0  0  0  0  0  0  0  0  0
   27.6500  -19.0400    0.0000 O   0  0  0  0  0  0  0  0  0  0  0  0
   30.0300  -20.4400    0.0000 N   0  0  0  0  0  0  0  0  0  0  0  0
   28.8400  -22.5400    0.0000 C   0  0  0  0  0  0  0  0  0  0  0  0
   31.2200  -21.1400    0.0000 C   0  0  0  0  0  0  0  0  0  0  0  0
   -1.0717   -0.2062    0.0000 C   0  0  0  0  0  0  0  0  0  0  0  0
   -1.0717   -1.0313    0.0000 C   0  0  0  0  0  0  0  0  0  0  0  0
   -0.3572   -1.4438    0.0000 C   0  0  0  0  0  0  0  0  0  0  0  0
    0.3572   -1.0313    0.0000 C   0  0  0  0  0  0  0  0  0  0  0  0
    0.3572   -0.2062    0.0000 C   0  0  0  0  0  0  0  0  0  0  0  0
   -0.3572    0.2062    0.0000 C   0  0  0  0  0  0  0  0  0  0  0  0
   -0.3572    1.0313    0.0000 C   0  0  0  0  0  0  0  0  0  0  0  0
   -1.0717    1.4438    0.0000 *   0  0  0  0  0  0  0  0  0  0  0  0
    0.3572    1.4438    0.0000 C   0  0  0  0  0  0  0  0  0  0  0  0
    1.0717    1.0313    0.0000 *   0  0  0  0  0  0  0  0  0  0  0  0
  1  2  2  0
  2  3  1  0
  3  4  2  0
  4  5  1  0
  5  6  2  0
  1  6  1  0
  5  7  1  0
  7  8  1  0
  7  9  1  6
  8 10  1  0
  8 11  1  1
 10 12  1  0
 13 14  2  0
 14 15  1  0
 15 16  2  0
 16 17  1  0
 17 18  2  0
 18 13  1  0
 18 19  1  0
 19 20  1  0
 19 21  1  0
 21 22  1  0
V   20 *
V   22 *
M  END
