28115-68-6.mol
     RDKit          2D

 15 16  0  0  0  0  0  0  0  0999 V2000
   -1.4484    0.7170    0.0000 C   0  0  0  0  0  0  0  0  0  0  0  0
   -1.1935   -0.0676    0.0000 N   0  0  0  0  0  0  0  0  0  0  0  0
   -1.8609   -0.5525    0.0000 C   0  0  0  0  0  0  0  0  0  0  0  0
   -2.5284   -0.0676    0.0000 C   0  0  0  0  0  0  0  0  0  0  0  0
   -2.2734    0.7170    0.0000 N   0  0  0  0  0  0  0  0  0  0  0  0
   -0.9635    1.3845    0.0000 O   0  0  0  0  0  0  0  0  0  0  0  0
   -1.8609   -1.3775    0.0000 C   0  0  0  0  0  0  0  0  0  0  0  0
   -0.4089   -0.3225    0.0000 C   0  0  0  0  0  0  0  0  0  0  0  0
    0.2042    0.2295    0.0000 C   0  0  0  0  0  0  0  0  0  0  0  0
    0.9889   -0.0255    0.0000 C   0  0  0  0  0  0  0  0  0  0  0  0
    1.1604   -0.8324    0.0000 C   0  0  0  0  0  0  0  0  0  0  0  0
    0.5473   -1.3845    0.0000 C   0  0  0  0  0  0  0  0  0  0  0  0
   -0.2373   -1.1295    0.0000 C   0  0  0  0  0  0  0  0  0  0  0  0
    1.9450   -1.0874    0.0000 O   0  0  0  0  0  0  0  0  0  0  0  0
    2.5284   -0.5040    0.0000 C   0  0  0  0  0  0  0  0  0  0  0  0
  1  2  1  0
  2  3  1  0
  3  4  2  0
  4  5  1  0
  1  5  1  0
  1  6  2  0
  3  7  1  0
  8  9  2  0
  9 10  1  0
 10 11  2  0
 11 12  1  0
 12 13  2  0
  8 13  1  0
 14 15  1  0
 11 14  1  0
  2  8  1  0
M  END
