 
     RDKit          2D

182206  0  0  1  0  0  0  0  0999 V2000
   20.0792  -18.5629    0.0000 C   0  0  0  0  0  0  0  0  0  0  0  0
   18.7936  -18.9840    0.0000 C   0  0  0  0  0  0  0  0  0  0  0  0
   20.9037  -19.6439    0.0000 C   0  0  0  0  0  0  0  0  0  0  0  0
   20.6487  -17.2744    0.0000 C   0  0  0  0  0  0  0  0  0  0  0  0
   18.7267  -20.4027    0.0000 C   0  0  0  0  0  0  0  0  0  0  0  0
   17.4984  -18.2817    0.0000 C   0  0  0  0  0  0  0  0  0  0  0  0
   20.0596  -20.8532    0.0000 N   0  0  0  0  0  0  0  0  0  0  0  0
   22.0603  -17.2723    0.0000 C   0  0  0  0  0  0  0  0  0  0  0  0
   17.5057  -21.1108    0.0000 C   0  0  0  0  0  0  0  0  0  0  0  0
   16.2812  -18.9945    0.0000 C   0  0  0  0  0  0  0  0  0  0  0  0
   16.2853  -20.4049    0.0000 C   0  0  0  0  0  0  0  0  0  0  0  0
   22.8897  -18.3497    0.0000 N   0  0  0  0  0  0  0  0  0  0  0  0
   22.2977  -19.7028    0.0000 C   0  0  0  0  0  0  0  0  0  0  0  0
   23.1127  -20.7867    0.0000 C   0  0  0  0  0  0  0  0  0  0  0  0
   24.2966  -18.3616    0.0000 C   0  0  0  0  0  0  0  0  0  0  0  0
   25.1117  -19.3045    0.0000 C   0  0  0  0  0  0  0  0  0  0  0  0
   24.5200  -20.7943    0.0000 C   0  0  0  0  0  0  0  0  0  0  0  0
   25.3315  -21.7346    0.0000 C   0  0  0  0  0  0  0  0  0  0  0  0
   26.7344  -21.6787    0.0000 C   0  0  0  0  0  0  0  0  0  0  0  0
   27.3259  -20.3293    0.0000 C   0  0  0  0  0  0  0  0  0  0  0  0
   26.5147  -19.3184    0.0000 C   0  0  0  0  0  0  0  0  0  0  0  0
   15.0687  -21.1091    0.0000 O   0  0  0  0  0  0  0  0  0  0  0  0
   24.7409  -23.0103    0.0000 C   0  0  0  0  0  0  0  0  0  0  0  0
   28.7261  -20.3436    0.0000 O   0  0  0  0  0  0  0  0  0  0  0  0
   23.3411  -22.9960    0.0000 O   0  0  0  0  0  0  0  0  0  0  0  0
   25.5506  -24.1596    0.0000 O   0  0  0  0  0  0  0  0  0  0  0  0
   29.2919  -18.8523    0.0000 C   0  0  0  0  0  0  0  0  0  0  0  0
   27.5439  -22.7570    0.0000 O   0  0  0  0  0  0  0  0  0  0  0  0
   28.9440  -22.7703    0.0000 C   0  0  0  0  0  0  0  0  0  0  0  0
   24.9603  -25.4352    0.0000 C   0  0  0  0  0  0  0  0  0  0  0  0
   13.8506  -20.4075    0.0000 C   0  0  0  0  0  0  0  0  0  0  0  0
   30.6901  -18.8581    0.0000 C   0  0  0  0  0  0  0  0  0  0  0  0
   28.5315  -17.7961    0.0000 O   0  0  0  0  0  0  0  0  0  0  0  0
   31.4656  -20.0696    0.0000 C   0  0  0  0  0  0  0  0  0  0  0  0
   32.8633  -20.0755    0.0000 C   0  0  0  0  0  0  0  0  0  0  0  0
   33.5067  -18.8330    0.0000 C   0  0  0  0  0  0  0  0  0  0  0  0
   32.7311  -17.6215    0.0000 C   0  0  0  0  0  0  0  0  0  0  0  0
   31.3334  -17.6157    0.0000 C   0  0  0  0  0  0  0  0  0  0  0  0
   33.4050  -16.3959    0.0000 O   0  0  0  0  0  0  0  0  0  0  0  0
   34.9122  -18.8386    0.0000 O   0  0  0  0  0  0  0  0  0  0  0  0
   33.5944  -21.2833    0.0000 O   0  0  0  0  0  0  0  0  0  0  0  0
   34.9830  -21.2544    0.0000 C   0  0  0  0  0  0  0  0  0  0  0  0
   35.5640  -17.5100    0.0000 C   0  0  0  0  0  0  0  0  0  0  0  0
   34.7732  -16.3668    0.0000 C   0  0  0  0  0  0  0  0  0  0  0  0
   22.5400  -33.0400    0.0000 C   0  0  0  0  0  0  0  0  0  0  0  0
   22.5400  -34.4400    0.0000 C   0  0  0  0  0  0  0  0  0  0  0  0
   23.7524  -35.1400    0.0000 C   0  0  0  0  0  0  0  0  0  0  0  0
   24.9649  -34.4400    0.0000 C   0  0  0  0  0  0  0  0  0  0  0  0
   24.9649  -33.0400    0.0000 C   0  0  0  0  0  0  0  0  0  0  0  0
   23.7524  -32.3400    0.0000 C   0  0  0  0  0  0  0  0  0  0  0  0
   26.1773  -35.1400    0.0000 N   0  0  0  0  0  0  0  0  0  0  0  0
   27.3897  -34.4400    0.0000 C   0  0  0  0  0  0  0  0  0  0  0  0
   27.3897  -33.0400    0.0000 C   0  0  0  0  0  0  0  0  0  0  0  0
   26.1773  -36.5400    0.0000 C   0  0  0  0  0  0  0  0  0  0  0  0
   28.6022  -35.1400    0.0000 C   0  0  0  0  0  0  0  0  0  0  0  0
   29.8146  -34.4400    0.0000 N   0  0  0  0  0  0  0  0  0  0  0  0
   29.8146  -33.0400    0.0000 C   0  0  0  0  0  0  0  0  0  0  0  0
   28.6022  -32.3400    0.0000 C   0  0  0  0  0  0  0  0  0  0  0  0
   28.6022  -36.5400    0.0000 C   0  0  0  0  0  0  0  0  0  0  0  0
   29.8146  -37.2400    0.0000 C   0  0  0  0  0  0  0  0  0  0  0  0
   31.0270  -36.5400    0.0000 C   0  0  0  0  0  0  0  0  0  0  0  0
   31.0270  -35.1400    0.0000 C   0  0  0  0  0  0  0  0  0  0  0  0
   32.2266  -37.2327    0.0000 C   0  0  0  0  0  0  0  0  0  0  0  0
   33.4159  -36.5460    0.0000 C   0  0  0  0  0  0  0  0  0  0  0  0
   32.2266  -34.4473    0.0000 O   0  0  0  0  0  0  0  0  0  0  0  0
   31.3669  -31.7577    0.0000 C   0  0  0  0  0  0  0  0  0  0  0  0
   27.5297  -30.4500    0.0000 C   0  0  0  0  0  0  0  0  0  0  0  0
   26.7399  -29.2808    0.0000 O   0  0  0  0  0  0  0  0  0  0  0  0
   19.0369  -18.0842    0.0000 C   0  0  0  0  0  0  0  0  0  0  0  0
   17.6804  -18.5056    0.0000 C   0  0  0  0  0  0  0  0  0  0  0  0
   19.8619  -19.2360    0.0000 C   0  0  0  0  0  0  0  0  0  0  0  0
   19.6067  -16.7949    0.0000 C   0  0  0  0  0  0  0  0  0  0  0  0
   17.6835  -19.9252    0.0000 C   0  0  0  0  0  0  0  0  0  0  0  0
   16.4545  -17.8029    0.0000 C   0  0  0  0  0  0  0  0  0  0  0  0
   19.0173  -20.3760    0.0000 N   0  0  0  0  0  0  0  0  0  0  0  0
   21.0192  -16.7928    0.0000 C   0  0  0  0  0  0  0  0  0  0  0  0
   16.4618  -20.6337    0.0000 C   0  0  0  0  0  0  0  0  0  0  0  0
   15.2365  -18.5161    0.0000 C   0  0  0  0  0  0  0  0  0  0  0  0
   15.2406  -19.9274    0.0000 C   0  0  0  0  0  0  0  0  0  0  0  0
   21.8491  -17.8709    0.0000 N   0  0  0  0  0  0  0  0  0  0  0  0
   21.2567  -19.2248    0.0000 C   0  0  0  0  0  0  0  0  0  0  0  0
   22.0723  -20.3094    0.0000 C   0  0  0  0  0  0  0  0  0  0  0  0
   23.2569  -17.8828    0.0000 C   0  0  0  0  0  0  0  0  0  0  0  0
   24.0725  -18.8263    0.0000 C   0  0  0  0  0  0  0  0  0  0  0  0
   23.4804  -20.3170    0.0000 C   0  0  0  0  0  0  0  0  0  0  0  0
   24.2924  -21.2579    0.0000 C   0  0  0  0  0  0  0  0  0  0  0  0
   25.6962  -21.2720    0.0000 C   0  0  0  0  0  0  0  0  0  0  0  0
   26.2881  -19.8517    0.0000 C   0  0  0  0  0  0  0  0  0  0  0  0
   25.4764  -18.8402    0.0000 C   0  0  0  0  0  0  0  0  0  0  0  0
   14.0232  -20.6320    0.0000 O   0  0  0  0  0  0  0  0  0  0  0  0
   23.7015  -22.5344    0.0000 C   0  0  0  0  0  0  0  0  0  0  0  0
   27.6891  -19.8660    0.0000 O   0  0  0  0  0  0  0  0  0  0  0  0
   22.3008  -22.5201    0.0000 O   0  0  0  0  0  0  0  0  0  0  0  0
   24.5117  -23.6844    0.0000 O   0  0  0  0  0  0  0  0  0  0  0  0
   28.2553  -18.4439    0.0000 C   0  0  0  0  0  0  0  0  0  0  0  0
   26.5062  -22.2809    0.0000 O   0  0  0  0  0  0  0  0  0  0  0  0
   27.9072  -22.2942    0.0000 C   0  0  0  0  0  0  0  0  0  0  0  0
   23.9210  -24.9608    0.0000 C   0  0  0  0  0  0  0  0  0  0  0  0
   12.8044  -19.9300    0.0000 C   0  0  0  0  0  0  0  0  0  0  0  0
   29.6544  -18.3796    0.0000 C   0  0  0  0  0  0  0  0  0  0  0  0
   27.4944  -17.3170    0.0000 O   0  0  0  0  0  0  0  0  0  0  0  0
   30.3665  -19.6954    0.0000 C   0  0  0  0  0  0  0  0  0  0  0  0
   31.7740  -19.7017    0.0000 C   0  0  0  0  0  0  0  0  0  0  0  0
   32.4544  -20.9617    0.0000 C   0  0  0  0  0  0  0  0  0  0  0  0
   33.8541  -20.8976    0.0000 C   0  0  0  0  0  0  0  0  0  0  0  0
   34.5591  -19.6882    0.0000 C   0  0  0  0  0  0  0  0  0  0  0  0
   33.8785  -18.4983    0.0000 C   0  0  0  0  0  0  0  0  0  0  0  0
   32.4788  -18.4924    0.0000 C   0  0  0  0  0  0  0  0  0  0  0  0
   34.5978  -22.1260    0.0000 O   0  0  0  0  0  0  0  0  0  0  0  0
   35.9732  -22.0972    0.0000 C   0  0  0  0  0  0  0  0  0  0  0  0
   35.9732  -19.6943    0.0000 O   0  0  0  0  0  0  0  0  0  0  0  0
   36.6898  -18.4659    0.0000 C   0  0  0  0  0  0  0  0  0  0  0  0
   34.5909  -17.2765    0.0000 O   0  0  0  0  0  0  0  0  0  0  0  0
   35.9734  -17.2826    0.0000 C   0  0  0  0  0  0  0  0  0  0  0  0
   16.5900  -17.0100    0.0000 C   0  0  0  0  0  0  0  0  0  0  0  0
   16.5900  -18.4800    0.0000 C   0  0  0  0  0  0  0  0  0  0  0  0
   17.8500  -19.1800    0.0000 C   0  0  0  0  0  0  0  0  0  0  0  0
   19.0400  -18.4800    0.0000 C   0  0  0  0  0  0  0  0  0  0  0  0
   19.0400  -17.0100    0.0000 C   0  0  0  0  0  0  0  0  0  0  0  0
   17.8500  -16.3100    0.0000 C   0  0  0  0  0  0  0  0  0  0  0  0
   20.3700  -18.9000    0.0000 N   0  0  0  0  0  0  0  0  0  0  0  0
   21.2100  -17.7100    0.0000 C   0  0  0  0  0  0  0  0  0  0  0  0
   20.3700  -16.5900    0.0000 C   0  0  0  0  0  0  0  0  0  0  0  0
   22.6100  -17.5700    0.0000 C   0  0  0  0  0  0  0  0  0  0  0  0
   23.1700  -16.3100    0.0000 N   0  0  0  0  0  0  0  0  0  0  0  0
   22.3300  -15.1900    0.0000 C   0  0  0  0  0  0  0  0  0  0  0  0
   20.9300  -15.3300    0.0000 C   0  0  0  0  0  0  0  0  0  0  0  0
   23.4500  -18.7600    0.0000 C   0  0  0  0  0  0  0  0  0  0  0  0
   24.8500  -18.6200    0.0000 C   0  0  0  0  0  0  0  0  0  0  0  0
   25.4100  -17.2900    0.0000 C   0  0  0  0  0  0  0  0  0  0  0  0
   24.5700  -16.1700    0.0000 C   0  0  0  0  0  0  0  0  0  0  0  0
   25.6200  -19.7400    0.0000 C   0  0  0  0  0  0  0  0  0  0  0  0
   27.0200  -19.6000    0.0000 C   0  0  0  0  0  0  0  0  0  0  0  0
   27.5800  -18.2700    0.0000 C   0  0  0  0  0  0  0  0  0  0  0  0
   26.8100  -17.1500    0.0000 C   0  0  0  0  0  0  0  0  0  0  0  0
   25.0600  -21.0000    0.0000 C   0  0  0  0  0  0  0  0  0  0  0  0
   23.7300  -21.0000    0.0000 O   0  0  0  0  0  0  0  0  0  0  0  0
   25.9000  -22.1200    0.0000 O   0  0  0  0  0  0  0  0  0  0  0  0
   27.8600  -20.7200    0.0000 O   0  0  0  0  0  0  0  0  0  0  0  0
   29.2600  -20.7200    0.0000 C   0  0  0  0  0  0  0  0  0  0  0  0
   27.3000  -22.1200    0.0000 C   0  0  0  0  0  0  0  0  0  0  0  0
   29.0500  -18.2700    0.0000 O   0  0  0  0  0  0  0  0  0  0  0  0
   29.6800  -17.0800    0.0000 C   0  0  0  0  0  0  0  0  0  0  0  0
   31.1500  -17.0800    0.0000 C   0  0  0  0  0  0  0  0  0  0  0  0
   31.8500  -18.2700    0.0000 C   0  0  0  0  0  0  0  0  0  0  0  0
   33.2500  -18.2700    0.0000 C   0  0  0  0  0  0  0  0  0  0  0  0
   33.9500  -17.0100    0.0000 C   0  0  0  0  0  0  0  0  0  0  0  0
   33.2500  -15.8200    0.0000 C   0  0  0  0  0  0  0  0  0  0  0  0
   31.8500  -15.8200    0.0000 C   0  0  0  0  0  0  0  0  0  0  0  0
   28.9800  -15.8200    0.0000 O   0  0  0  0  0  0  0  0  0  0  0  0
   33.9500  -14.6300    0.0000 O   0  0  0  0  0  0  0  0  0  0  0  0
   35.3500  -14.7000    0.0000 C   0  0  0  0  0  0  0  0  0  0  0  0
   35.3500  -17.0100    0.0000 O   0  0  0  0  0  0  0  0  0  0  0  0
   33.9500  -19.4600    0.0000 O   0  0  0  0  0  0  0  0  0  0  0  0
   35.3500  -19.4600    0.0000 C   0  0  0  0  0  0  0  0  0  0  0  0
   36.0500  -15.8200    0.0000 C   0  0  0  0  0  0  0  0  0  0  0  0
   20.8471  -17.9806    0.0000 C   0  0  0  0  0  0  0  0  0  0  0  0
   21.4255  -19.2593    0.0000 C   0  0  0  0  0  0  0  0  0  0  0  0
   22.8270  -19.3994    0.0000 C   0  0  0  0  0  0  0  0  0  0  0  0
   21.6701  -16.8420    0.0000 C   0  0  0  0  0  0  0  0  0  0  0  0
   23.0624  -16.9785    0.0000 C   0  0  0  0  0  0  0  0  0  0  0  0
   23.6370  -18.2628    0.0000 C   0  0  0  0  0  0  0  0  0  0  0  0
   25.0382  -18.1176    0.0000 N   0  0  0  0  0  0  0  0  0  0  0  0
   24.1075  -16.0372    0.0000 C   0  0  0  0  0  0  0  0  0  0  0  0
   25.3173  -16.7445    0.0000 C   0  0  0  0  0  0  0  0  0  0  0  0
   25.3251  -13.9374    0.0000 C   0  0  0  0  0  0  0  0  0  0  0  0
   24.1082  -14.6350    0.0000 C   0  0  0  0  0  0  0  0  0  0  0  0
   26.5413  -14.6419    0.0000 N   0  0  0  0  0  0  0  0  0  0  0  0
   26.5285  -16.0427    0.0000 C   0  0  0  0  0  0  0  0  0  0  0  0
   27.7357  -16.7438    0.0000 C   0  0  0  0  0  0  0  0  0  0  0  0
   27.7576  -13.9513    0.0000 C   0  0  0  0  0  0  0  0  0  0  0  0
   28.9583  -14.6549    0.0000 C   0  0  0  0  0  0  0  0  0  0  0  0
   28.9493  -16.0474    0.0000 C   0  0  0  0  0  0  0  0  0  0  0  0
   30.1466  -16.7568    0.0000 C   0  0  0  0  0  0  0  0  0  0  0  0
   31.3591  -16.0711    0.0000 C   0  0  0  0  0  0  0  0  0  0  0  0
   30.1707  -13.9692    0.0000 C   0  0  0  0  0  0  0  0  0  0  0  0
   31.3724  -14.6785    0.0000 O   0  0  0  0  0  0  0  0  0  0  0  0
   30.2009  -12.5655    0.0000 C   0  0  0  0  0  0  0  0  0  0  0  0
   30.1969  -18.1578    0.0000 C   0  0  0  0  0  0  0  0  0  0  0  0
   31.2327  -19.0063    0.0000 O   0  0  0  0  0  0  0  0  0  0  0  0
   29.0035  -19.0144    0.0000 O   0  0  0  0  0  0  0  0  0  0  0  0
   32.5202  -18.3109    0.0000 C   0  0  0  0  0  0  0  0  0  0  0  0
 16 21  1  1
  6 10  2  0
 11 22  1  0
  9 11  2  0
 18 23  1  1
  5  7  1  0
 20 24  1  1
  8 12  1  0
 23 25  2  0
 10 11  1  0
 23 26  1  0
 24 27  1  0
  1  2  1  0
  1  3  2  0
  1  4  1  0
 19 28  1  6
 12 13  1  0
 28 29  1  0
 13 14  1  6
 17 14  1  1
 16 15  1  0
 15 12  1  0
 26 30  1  0
  2  5  2  0
  2  6  1  0
  3  7  1  0
  3 13  1  0
  4  8  1  0
  5  9  1  0
 16 17  1  0
 17 18  1  0
 18 19  1  0
 19 20  1  0
 20 21  1  0
 22 31  1  0
 27 32  1  0
 27 33  2  0
 32 34  2  0
 34 35  1  0
 35 36  2  0
 36 37  1  0
 37 38  2  0
 32 38  1  0
 37 39  1  0
 36 40  1  0
 35 41  1  0
 41 42  1  0
 40 43  1  0
 39 44  1  0
 45 46  2  0
 46 47  1  0
 47 48  2  0
 48 49  1  0
 49 50  2  0
 45 50  1  0
 48 51  1  0
 52 51  1  6
 52 53  1  0
 53 49  1  6
 51 54  1  0
 52 55  1  0
 55 56  1  0
 56 57  1  0
 57 58  1  1
 53 58  1  0
 55 59  1  0
 59 60  1  0
 60 61  1  0
 61 62  1  0
 56 62  1  0
 61 63  1  1
 63 64  1  0
 62 65  1  6
 60 66  1  1
 57 66  1  0
 53 67  1  0
 66 67  1  0
 67 68  1  6
 84 89  1  1
 74 78  2  0
 79 90  1  0
 77 79  2  0
 86 91  1  1
 73 75  1  0
 88 92  1  1
 76 80  1  0
 91 93  2  0
 78 79  1  0
 91 94  1  0
 92 95  1  0
 69 70  1  0
 69 71  2  0
 69 72  1  0
 87 96  1  6
 80 81  1  0
 96 97  1  0
 81 82  1  6
 85 82  1  1
 84 83  1  0
 83 80  1  0
 94 98  1  0
 70 73  2  0
 70 74  1  0
 71 75  1  0
 71 81  1  0
 72 76  1  0
 73 77  1  0
 84 85  1  0
 85 86  1  0
 86 87  1  0
 87 88  1  0
 88 89  1  0
 90 99  1  0
 95100  1  0
 95101  2  0
100102  2  0
102103  1  0
103104  2  0
104105  1  0
105106  2  0
106107  1  0
107108  2  0
103108  1  0
105109  1  0
109110  1  0
106111  1  0
111112  1  0
107113  1  0
113114  1  0
115116  2  0
116117  1  0
117118  2  0
118119  1  0
119120  2  0
115120  1  0
118121  1  0
121122  1  0
122123  2  0
119123  1  0
122124  1  0
124125  1  0
125126  1  0
126127  1  0
123127  1  0
124128  1  6
129128  1  1
129130  1  0
130131  1  1
125131  1  0
129132  1  0
132133  1  0
133134  1  0
134135  1  0
130135  1  0
132136  1  1
136137  2  0
136138  1  0
133139  1  6
139140  1  0
138141  1  0
134142  1  1
142143  1  0
143144  1  0
144145  2  0
145146  1  0
146147  2  0
147148  1  0
148149  2  0
144149  1  0
143150  2  0
148151  1  0
151152  1  0
147153  1  0
146154  1  0
154155  1  0
153156  1  0
161162  2  0
162163  1  0
168169  2  0
169170  1  0
173170  1  1
172171  1  6
171168  1  0
163165  1  0
164161  1  0
159162  1  0
161160  1  0
172173  1  0
173174  1  0
174175  2  0
175177  1  0
176172  1  0
160157  2  0
176177  1  0
164165  2  0
176178  1  6
165169  1  0
174179  1  0
168166  1  0
166167  2  0
167164  1  0
179180  1  0
157158  1  0
158159  2  0
179181  2  0
180182  1  0
M  CHG  2 163  -1 168   1
M  END
