 
 
 
 59 61  0  0  1  0  0  0  0  0999 V2000
   24.2313  -28.8523    0.0000 C   0  0  2  0  0  0  0  0  0  0  0  0
   25.4220  -29.5527    0.0000 C   0  0  0  0  0  0  0  0  0  0  0  0
   26.8929  -28.8523    0.0000 C   0  0  1  0  0  0  0  0  0  0  0  0
   26.8929  -27.4515    0.0000 O   0  0  0  0  0  0  0  0  0  0  0  0
   21.8500  -27.4515    0.0000 C   0  0  0  0  0  0  0  0  0  0  0  0
   21.8500  -28.8523    0.0000 C   0  0  0  0  0  0  0  0  0  0  0  0
   23.0407  -29.5527    0.0000 C   0  0  1  0  0  0  0  0  0  0  0  0
   24.2313  -27.4515    0.0000 O   0  0  0  0  0  0  0  0  0  0  0  0
   23.0407  -26.7511    0.0000 C   0  0  1  0  0  0  0  0  0  0  0  0
   18.3480  -18.4163    0.0000 C   0  0  0  0  0  0  0  0  0  0  0  0
   19.5386  -17.7159    0.0000 C   0  0  1  0  0  0  0  0  0  0  0  0
   18.3480  -19.8171    0.0000 C   0  0  0  0  0  0  0  0  0  0  0  0
   17.1573  -20.5175    0.0000 C   0  0  0  0  0  0  0  0  0  0  0  0
   17.1573  -21.8483    0.0000 C   0  0  0  0  0  0  0  0  0  0  0  0
   18.3480  -22.5487    0.0000 C   0  0  0  0  0  0  0  0  0  0  0  0
   18.3480  -23.9495    0.0000 C   0  0  2  0  0  0  0  0  0  0  0  0
   19.5386  -24.6499    0.0000 C   0  0  0  0  0  0  0  0  0  0  0  0
   20.7293  -18.4163    0.0000 C   0  0  2  0  0  0  0  0  0  0  0  0
   21.9200  -17.7159    0.0000 C   0  0  2  0  0  0  0  0  0  0  0  0
   23.1107  -18.4163    0.0000 C   0  0  0  0  0  0  0  0  0  0  0  0
   24.3714  -17.7159    0.0000 C   0  0  1  0  0  0  0  0  0  0  0  0
   25.5621  -18.4163    0.0000 C   0  0  2  0  0  0  0  0  0  0  0  0
   28.0135  -18.4163    0.0000 C   0  0  0  0  0  0  0  0  0  0  0  0
   26.7528  -17.7159    0.0000 C   0  0  1  0  0  0  0  0  0  0  0  0
   28.0135  -19.8171    0.0000 C   0  0  1  0  0  0  0  0  0  0  0  0
   29.1342  -21.9183    0.0000 C   0  0  1  0  0  0  0  0  0  0  0  0
   29.2042  -20.5175    0.0000 C   0  0  2  0  0  0  0  0  0  0  0  0
   27.9435  -22.6187    0.0000 C   0  0  0  0  0  0  0  0  0  0  0  0
   26.6828  -24.7199    0.0000 C   0  0  0  0  0  0  0  0  0  0  0  0
   27.9435  -24.0195    0.0000 C   0  0  0  0  0  0  0  0  0  0  0  0
   25.4921  -23.9495    0.0000 O   0  0  0  0  0  0  0  0  0  0  0  0
   24.2313  -24.6499    0.0000 C   0  0  1  0  0  0  0  0  0  0  0  0
   23.0407  -23.9495    0.0000 C   0  0  2  0  0  0  0  0  0  0  0  0
   20.6593  -23.8795    0.0000 C   0  0  0  0  0  0  0  0  0  0  0  0
   21.8500  -24.5799    0.0000 C   0  0  1  0  0  0  0  0  0  0  0  0
   19.5386  -16.3151    0.0000 C   0  0  0  0  0  0  0  0  0  0  0  0
   20.7293  -19.8171    0.0000 O   0  0  0  0  0  0  0  0  0  0  0  0
   22.9006  -16.7354    0.0000 C   0  0  0  0  0  0  0  0  0  0  0  0
   20.9395  -16.7354    0.0000 O   0  0  0  0  0  0  0  0  0  0  0  0
   23.1107  -19.8171    0.0000 O   0  0  0  0  0  0  0  0  0  0  0  0
   24.3714  -16.3151    0.0000 C   0  0  0  0  0  0  0  0  0  0  0  0
   25.5621  -19.8171    0.0000 O   0  0  0  0  0  0  0  0  0  0  0  0
   26.7528  -16.3151    0.0000 C   0  0  0  0  0  0  0  0  0  0  0  0
   29.2042  -17.7159    0.0000 O   0  0  0  0  0  0  0  0  0  0  0  0
   26.7528  -20.5175    0.0000 C   0  0  0  0  0  0  0  0  0  0  0  0
   30.3949  -19.8171    0.0000 O   0  0  0  0  0  0  0  0  0  0  0  0
   30.3949  -22.6187    0.0000 C   0  0  0  0  0  0  0  0  0  0  0  0
   26.6828  -26.1207    0.0000 O   0  0  0  0  0  0  0  0  0  0  0  0
   24.3014  -23.1791    0.0000 H   0  0  0  0  0  0  0  0  0  0  0  0
   23.0407  -22.5487    0.0000 C   0  0  0  0  0  0  0  0  0  0  0  0
   21.8500  -23.2491    0.0000 H   0  0  0  0  0  0  0  0  0  0  0  0
   18.3480  -25.3503    0.0000 H   0  0  0  0  0  0  0  0  0  0  0  0
   17.0872  -24.6499    0.0000 C   0  0  0  0  0  0  0  0  0  0  0  0
   15.8966  -23.9495    0.0000 C   0  0  0  0  0  0  0  0  0  0  0  0
   24.2313  -26.0507    0.0000 C   0  0  1  0  0  0  0  0  0  0  0  0
   21.8500  -26.0507    0.0000 O   0  0  0  0  0  0  0  0  0  0  0  0
   23.0407  -30.9535    0.0000 C   0  0  0  0  0  0  0  0  0  0  0  0
   24.2313  -30.2531    0.0000 H   0  0  0  0  0  0  0  0  0  0  0  0
   28.0836  -29.5527    0.0000 C   0  0  0  0  0  0  0  0  0  0  0  0
 29 30  1  0     0  0
  5  9  1  0     0  0
  6  7  1  0     0  0
 31 32  1  0     0  0
 33 32  1  0     0  0
  7  1  1  0     0  0
 15 16  1  0     0  0
 16 17  1  0     0  0
 33 35  1  0     0  0
 34 35  1  0     0  0
 17 34  1  0     0  0
 11 36  1  1     0  0
  1  8  1  0     0  0
 18 37  1  1     0  0
  9  8  1  6     0  0
 19 38  1  6     0  0
 18 19  1  0     0  0
 19 39  1  1     0  0
 20 19  1  0     0  0
 20 40  2  0     0  0
 10 12  1  0     0  0
 21 41  1  1     0  0
 22 42  1  1     0  0
 20 21  1  0     0  0
 24 43  1  1     0  0
 22 21  1  0     0  0
 23 44  2  0     0  0
  1  2  1  0     0  0
 25 45  1  6     0  0
 10 11  1  0     0  0
 27 46  1  6     0  0
 18 11  1  0     0  0
 26 47  1  1     0  0
 22 24  1  0     0  0
 29 48  2  0     0  0
 25 23  1  0     0  0
 32 49  1  6     0  0
 23 24  1  0     0  0
 33 50  1  1     0  0
  2  3  1  0     0  0
 35 51  1  6     0  0
  3  4  1  6     0  0
 16 52  1  6     0  0
  5  6  1  0     0  0
 16 53  1  0     0  0
 25 27  1  0     0  0
 53 54  1  0     0  0
 28 26  1  0     0  0
 32 55  1  0     0  0
 26 27  1  0     0  0
 55  9  1  0     0  0
 12 13  2  0     0  0
  9 56  1  0     0  0
 56 35  1  0     0  0
 13 14  1  0     0  0
  7 57  1  1     0  0
 14 15  2  0     0  0
  1 58  1  6     0  0
 28 30  2  0     0  0
  3 59  1  0     0  0
 31 29  1  0     0  0
M  END
