5557-27-7.mol
     RDKit          2D

 71 72  0  0  1  0  0  0  0  0999 V2000
    0.3650    4.7172    0.0000 O   0  0  0  0  0  0  0  0  0  0  0  0
   -0.5442    4.0567    0.0000 O   0  0  0  0  0  0  0  0  0  0  0  0
    2.0329    7.1805    0.0000 O   0  0  0  0  0  0  0  0  0  0  0  0
    1.9386    4.7526    0.0000 O   0  0  0  0  0  0  0  0  0  0  0  0
   -3.4022    3.2316    0.0000 O   0  0  0  0  0  0  0  0  0  0  0  0
   -4.8313    4.0567    0.0000 O   0  0  0  0  0  0  0  0  0  0  0  0
    3.7658    2.4052    0.0000 O   0  0  0  0  0  0  0  0  0  0  0  0
   -4.1167    5.2943    0.0000 O   0  0  0  0  0  0  0  0  0  0  0  0
   -2.6877    0.3440    0.0000 O   0  0  0  0  0  0  0  0  0  0  0  0
   -1.2587   -0.4811    0.0000 O   0  0  0  0  0  0  0  0  0  0  0  0
   -0.5442    0.7565    0.0000 O   0  0  0  0  0  0  0  0  0  0  0  0
   -5.5458   -0.4811    0.0000 O   0  0  0  0  0  0  0  0  0  0  0  0
   -4.8313   -3.3687    0.0000 O   0  0  0  0  0  0  0  0  0  0  0  0
   -7.6893   -4.1938    0.0000 O   0  0  0  0  0  0  0  0  0  0  0  0
   -1.2587    5.2943    0.0000 N   0  0  0  0  0  0  0  0  0  0  0  0
    2.9890    6.1185    0.0000 N   0  0  0  0  0  0  0  0  0  0  0  0
    0.8066    6.0763    0.0000 N   0  0  0  0  0  0  0  0  0  0  0  0
   -1.9732    3.2316    0.0000 N   0  0  0  0  0  0  0  0  0  0  0  0
    3.0946    3.9126    0.0000 N   0  0  0  0  0  0  0  0  0  0  0  0
   -3.4022    1.5815    0.0000 N   0  0  0  0  0  0  0  0  0  0  0  0
    5.0713    2.9864    0.0000 N   0  0  0  0  0  0  0  0  0  0  0  0
    6.5261    4.9888    0.0000 N   0  0  0  0  0  0  0  0  0  0  0  0
   -4.1167   -0.4811    0.0000 N   0  0  0  0  0  0  0  0  0  0  0  0
   -5.5458   -2.1312    0.0000 N   0  0  0  0  0  0  0  0  0  0  0  0
   -6.2603   -4.1938    0.0000 N   0  0  0  0  0  0  0  0  0  0  0  0
    7.8316    5.5701    0.0000 N   0  0  0  0  0  0  0  0  0  0  0  0
    6.6755    6.4101    0.0000 N   0  0  0  0  0  0  0  0  0  0  0  0
   -7.6893   -5.8439    0.0000 N   0  0  0  0  0  0  0  0  0  0  0  0
   -0.5912    5.7792    0.0000 C   0  0  0  0  0  0  0  0  0  0  0  0
   -0.8461    6.5639    0.0000 C   0  0  0  0  0  0  0  0  0  0  0  0
   -1.6712    6.5639    0.0000 C   0  0  0  0  0  0  0  0  0  0  0  0
   -1.9261    5.7792    0.0000 C   0  0  0  0  0  0  0  0  0  0  0  0
    3.2440    5.3339    0.0000 C   0  0  0  0  0  0  0  0  0  0  0  0
    4.0691    5.3339    0.0000 C   0  0  0  0  0  0  0  0  0  0  0  0
    4.3240    6.1185    0.0000 C   0  0  0  0  0  0  0  0  0  0  0  0
    3.6566    6.6034    0.0000 C   0  0  0  0  0  0  0  0  0  0  0  0
    0.1934    5.5243    0.0000 C   0  0  0  0  0  0  0  0  0  0  0  0
   -1.2587    4.4692    0.0000 C   0  0  0  0  0  0  0  0  0  0  0  0
   -1.9732    4.0567    0.0000 C   0  0  0  0  0  0  0  0  0  0  0  0
    2.2044    6.3734    0.0000 C   0  0  0  0  0  0  0  0  0  0  0  0
    2.7591    4.6663    0.0000 C   0  0  0  0  0  0  0  0  0  0  0  0
    1.5912    5.8214    0.0000 C   0  0  0  0  0  0  0  0  0  0  0  0
   -2.6877    4.4692    0.0000 C   0  0  0  0  0  0  0  0  0  0  0  0
    3.9151    3.8264    0.0000 C   0  0  0  0  0  0  0  0  0  0  0  0
   -3.4022    4.0567    0.0000 C   0  0  0  0  0  0  0  0  0  0  0  0
   -2.6877    2.8191    0.0000 C   0  0  0  0  0  0  0  0  0  0  0  0
    4.4001    4.4939    0.0000 C   0  0  0  0  0  0  0  0  0  0  0  0
   -2.6877    1.9941    0.0000 C   0  0  0  0  0  0  0  0  0  0  0  0
    5.2206    4.4077    0.0000 C   0  0  0  0  0  0  0  0  0  0  0  0
    4.2508    3.0726    0.0000 C   0  0  0  0  0  0  0  0  0  0  0  0
   -1.9732    1.5815    0.0000 C   0  0  0  0  0  0  0  0  0  0  0  0
   -4.1167    4.4692    0.0000 C   0  0  0  0  0  0  0  0  0  0  0  0
    5.7056    5.0751    0.0000 C   0  0  0  0  0  0  0  0  0  0  0  0
   -1.9732    0.7565    0.0000 C   0  0  0  0  0  0  0  0  0  0  0  0
   -3.4022    0.7565    0.0000 C   0  0  0  0  0  0  0  0  0  0  0  0
   -4.1167    0.3440    0.0000 C   0  0  0  0  0  0  0  0  0  0  0  0
   -4.8313   -1.7187    0.0000 C   0  0  0  0  0  0  0  0  0  0  0  0
   -1.2587    0.3440    0.0000 C   0  0  0  0  0  0  0  0  0  0  0  0
   -4.1167   -2.1312    0.0000 C   0  0  0  0  0  0  0  0  0  0  0  0
   -4.8313   -0.8936    0.0000 C   0  0  0  0  0  0  0  0  0  0  0  0
   -4.1167   -2.9562    0.0000 C   0  0  0  0  0  0  0  0  0  0  0  0
   -3.4022   -1.7187    0.0000 C   0  0  0  0  0  0  0  0  0  0  0  0
   -6.2603   -3.3687    0.0000 C   0  0  0  0  0  0  0  0  0  0  0  0
   -5.5458   -2.9562    0.0000 C   0  0  0  0  0  0  0  0  0  0  0  0
    7.0111    5.6564    0.0000 C   0  0  0  0  0  0  0  0  0  0  0  0
   -6.9748   -5.4314    0.0000 C   0  0  0  0  0  0  0  0  0  0  0  0
   -6.2603   -5.8439    0.0000 C   0  0  0  0  0  0  0  0  0  0  0  0
   -6.9748   -4.6063    0.0000 C   0  0  0  0  0  0  0  0  0  0  0  0
   -6.9748   -2.9562    0.0000 C   0  0  0  0  0  0  0  0  0  0  0  0
   -6.2603   -6.6690    0.0000 C   0  0  0  0  0  0  0  0  0  0  0  0
   -5.5458   -5.4314    0.0000 C   0  0  0  0  0  0  0  0  0  0  0  0
  1 37  2  0
  2 38  2  0
  3 40  2  0
  4 41  2  0
  5 46  2  0
  6 52  1  0
  7 50  2  0
  8 52  2  0
  9 55  2  0
 10 58  1  0
 11 58  2  0
 12 60  2  0
 13 64  2  0
 14 68  2  0
 15 29  1  0
 15 32  1  0
 15 38  1  0
 16 33  1  0
 16 36  1  0
 16 40  1  0
 17 37  1  0
 17 42  1  0
 39 18  1  0
 18 46  1  0
 19 41  1  0
 44 19  1  0
 48 20  1  0
 20 55  1  0
 21 50  1  0
 22 53  1  0
 22 65  2  0
 23 56  1  0
 23 60  1  0
 57 24  1  6
 24 64  1  0
 63 25  1  0
 25 68  1  0
 26 65  1  0
 27 65  1  0
 66 28  1  6
 29 30  1  0
 29 37  1  1
 30 31  1  0
 31 32  1  0
 33 34  1  0
 33 41  1  1
 34 35  1  0
 35 36  1  0
 38 39  1  0
 39 43  1  1
 40 42  1  0
 43 45  1  0
 44 47  1  1
 44 50  1  0
 45 52  1  0
 46 48  1  0
 47 49  1  0
 48 51  1  6
 49 53  1  0
 51 54  1  0
 54 58  1  0
 55 56  1  0
 57 59  1  0
 57 60  1  0
 59 61  1  0
 59 62  1  0
 63 64  1  0
 63 69  1  1
 66 67  1  0
 66 68  1  0
 67 70  1  0
 67 71  1  0
V    1 0
V    2 1
V    3 2
V    4 3
V    5 4
V    6 5
V    7 6
V    8 7
V    9 8
V   10 9
V   11 10
V   12 11
V   13 12
V   14 13
V   15 14
V   16 15
V   17 16
V   18 17
V   19 18
V   20 19
V   21 20
V   22 21
V   23 22
V   24 23
V   25 24
V   26 25
V   27 26
V   28 27
V   29 28
V   30 29
V   31 30
V   32 31
V   33 32
V   34 33
V   35 34
V   36 35
V   37 36
V   38 37
V   39 38
V   40 39
V   41 40
V   42 41
V   43 42
V   44 43
V   45 44
V   46 45
V   47 46
V   48 47
V   49 48
V   50 49
V   51 50
V   52 51
V   53 52
V   54 53
V   55 54
V   56 55
V   57 56
V   58 57
V   59 58
V   60 59
V   61 60
V   62 61
V   63 62
V   64 63
V   65 64
V   66 65
V   67 66
V   68 67
V   69 68
V   70 69
V   71 70
M  END
