 
     RDKit          2D

 50 54  0  0  1  0  0  0  0  0999 V2000
   22.4000  -28.3500    0.0000 C   0  0  0  0  0  0  0  0  0  0  0  0
   22.4000  -29.7500    0.0000 C   0  0  0  0  0  0  0  0  0  0  0  0
   23.5900  -30.4500    0.0000 C   0  0  0  0  0  0  0  0  0  0  0  0
   24.8500  -29.7500    0.0000 C   0  0  0  0  0  0  0  0  0  0  0  0
   24.8500  -28.3500    0.0000 C   0  0  0  0  0  0  0  0  0  0  0  0
   23.5900  -27.6500    0.0000 C   0  0  0  0  0  0  0  0  0  0  0  0
   26.0400  -30.4500    0.0000 C   0  0  0  0  0  0  0  0  0  0  0  0
   27.2300  -29.7500    0.0000 C   0  0  0  0  0  0  0  0  0  0  0  0
   27.2300  -28.3500    0.0000 C   0  0  0  0  0  0  0  0  0  0  0  0
   26.0400  -27.6500    0.0000 C   0  0  0  0  0  0  0  0  0  0  0  0
   28.4900  -27.6500    0.0000 C   0  0  0  0  0  0  0  0  0  0  0  0
   28.4900  -26.2500    0.0000 C   0  0  0  0  0  0  0  0  0  0  0  0
   27.2300  -25.5500    0.0000 C   0  0  0  0  0  0  0  0  0  0  0  0
   26.0400  -26.2500    0.0000 C   0  0  0  0  0  0  0  0  0  0  0  0
   21.2100  -30.4500    0.0000 O   0  0  0  0  0  0  0  0  0  0  0  0
   20.0200  -29.7500    0.0000 S   0  0  0  0  0  0  0  0  0  0  0  0
   18.7600  -29.0500    0.0000 O   0  0  0  0  0  0  0  0  0  0  0  0
   20.7200  -28.5600    0.0000 O   0  0  0  0  0  0  0  0  0  0  0  0
   19.3200  -30.9400    0.0000 O   0  0  0  0  0  0  0  0  0  0  0  0
   28.4900  -24.8500    0.0000 C   0  0  0  0  0  0  0  0  0  0  0  0
   30.9149  -27.6500    0.0000 C   0  0  0  0  0  0  0  0  0  0  0  0
   30.9149  -26.2500    0.0000 C   0  0  0  0  0  0  0  0  0  0  0  0
   29.7024  -25.5500    0.0000 C   0  0  0  0  0  0  0  0  0  0  0  0
   29.7024  -24.1502    0.0000 O   0  0  0  0  0  0  0  0  0  0  0  0
   16.8700  -29.0500    0.0000 Na  0  0  0  0  0 15  0  0  0  0  0  0
   16.6022  -15.8092    0.0000 Na  0  0  0  0  0 15  0  0  0  0  0  0
   24.9943  -17.9151    0.0000 C   0  0  0  0  0  0  0  0  0  0  0  0
   23.8583  -17.2334    0.0000 C   0  0  0  0  0  0  0  0  0  0  0  0
   26.1758  -17.2334    0.0000 C   0  0  0  0  0  0  0  0  0  0  0  0
   24.9943  -19.2329    0.0000 C   0  0  0  0  0  0  0  0  0  0  0  0
   22.6767  -17.9151    0.0000 C   0  0  0  0  0  0  0  0  0  0  0  0
   23.8583  -15.9156    0.0000 C   0  0  0  0  0  0  0  0  0  0  0  0
   26.1968  -15.9481    0.0000 C   0  0  0  0  0  0  0  0  0  0  0  0
   23.8583  -19.9145    0.0000 C   0  0  0  0  0  0  0  0  0  0  0  0
   22.6767  -19.2329    0.0000 C   0  0  0  0  0  0  0  0  0  0  0  0
   21.4952  -17.2334    0.0000 C   0  0  0  0  0  0  0  0  0  0  0  0
   25.0398  -15.2340    0.0000 C   0  0  0  0  0  0  0  0  0  0  0  0
   26.2668  -14.5522    0.0000 C   0  0  0  0  0  0  0  0  0  0  0  0
   21.5405  -19.9145    0.0000 C   0  0  0  0  0  0  0  0  0  0  0  0
   20.3591  -17.9151    0.0000 C   0  0  0  0  0  0  0  0  0  0  0  0
   20.3591  -19.2329    0.0000 C   0  0  0  0  0  0  0  0  0  0  0  0
   19.1775  -19.9145    0.0000 O   0  0  0  0  0  0  0  0  0  0  0  0
   18.0414  -19.2329    0.0000 S   0  0  0  0  0  0  0  0  0  0  0  0
   16.6782  -18.5967    0.0000 O   0  0  0  0  0  0  0  0  0  0  0  0
   17.3598  -20.5508    0.0000 O   0  0  0  0  0  0  0  0  0  0  0  0
   18.6776  -17.9605    0.0000 O   0  0  0  0  0  0  0  0  0  0  0  0
   28.5389  -17.2334    0.0000 C   0  0  0  0  0  0  0  0  0  0  0  0
   28.5389  -15.8702    0.0000 C   0  0  0  0  0  0  0  0  0  0  0  0
   27.3574  -15.1884    0.0000 C   0  0  0  0  0  0  0  0  0  0  0  0
   27.3504  -13.7826    0.0000 O   0  0  0  0  0  0  0  0  0  0  0  0
  1  2  2  0
  2  3  1  0
  3  4  2  0
  4  5  1  0
  5  6  2  0
  1  6  1  0
  4  7  1  0
  7  8  1  0
  9  8  1  6
  9 10  1  0
  5 10  1  0
  9 11  1  0
 11 12  1  0
 12 13  1  0
 13 14  1  0
 10 14  1  1
  2 15  1  0
 15 16  1  0
 16 17  1  0
 16 18  2  0
 16 19  2  0
 12 20  1  1
 11 21  1  1
 21 22  1  0
 22 23  1  0
 12 23  1  0
 23 24  2  0
 27 28  1  0
 27 29  1  0
 27 30  2  0
 28 31  1  0
 29 33  1  0
 30 34  1  0
 31 35  2  0
 31 36  1  0
 32 37  1  0
 33 38  1  1
 35 39  1  0
 36 40  2  0
 39 41  2  0
 41 42  1  0
 42 43  1  0
 43 44  2  0
 43 45  2  0
 43 46  1  0
 33 37  1  0
 34 35  1  0
 40 41  1  0
 28 32  1  1
 29 47  1  1
 47 48  1  0
 48 49  1  0
 33 49  1  0
 49 50  2  0
M  CHG  4  17  -1  25   1  26   1  46  -1
M  END
