86278204
     RDKit          2D

 23 16  0  0  0  0  0  0  0  0999 V2000
    5.0000    1.5490    0.0000 Tc  0  0  0  0  0 15  0  0  0  0  0  0
    5.0000   -0.1830    0.0000 P   0  0  0  0  0  0  0  0  0  0  0  0
    5.0000   -1.9151    0.0000 P   0  0  0  0  0  0  0  0  0  0  0  0
    6.7320    1.5490    0.0000 P   0  0  0  0  0  0  0  0  0  0  0  0
    3.5000    2.4151    0.0000 P   0  0  0  0  0  0  0  0  0  0  0  0
    6.7320   -0.1830    0.0000 Na  0  0  0  0  0 15  0  0  0  0  0  0
    4.1340   -3.4151    0.0000 Na  0  0  0  0  0 15  0  0  0  0  0  0
    6.5000   -2.7811    0.0000 Na  0  0  0  0  0 15  0  0  0  0  0  0
    2.0000    3.2811    0.0000 Na  0  0  0  0  0 15  0  0  0  0  0  0
    5.5000    0.6830    0.0000 O   0  0  0  0  0  0  0  0  0  0  0  0
    5.8660   -0.6830    0.0000 O   0  0  0  0  0  0  0  0  0  0  0  0
    4.1340   -2.4151    0.0000 O   0  0  0  0  0  0  0  0  0  0  0  0
    5.5000   -2.7811    0.0000 O   0  0  0  0  0  0  0  0  0  0  0  0
    5.8660    2.0490    0.0000 O   0  0  0  0  0  0  0  0  0  0  0  0
    4.1340    1.0490    0.0000 O   0  0  0  0  0  0  0  0  0  0  0  0
    4.5000    2.4151    0.0000 O   0  0  0  0  0  0  0  0  0  0  0  0
    2.5000    2.4151    0.0000 O   0  0  0  0  0  0  0  0  0  0  0  0
    4.1340    0.3170    0.0000 O   0  0  0  0  0  0  0  0  0  0  0  0
    5.8660   -1.4151    0.0000 O   0  0  0  0  0  0  0  0  0  0  0  0
    7.2320    2.4151    0.0000 O   0  0  0  0  0  0  0  0  0  0  0  0
    3.5000    3.4151    0.0000 O   0  0  0  0  0  0  0  0  0  0  0  0
    4.5000   -1.0490    0.0000 C   0  0  0  0  0  0  0  0  0  0  0  0
    7.5981    1.0490    0.0000 C   0  0  0  0  0  0  0  0  0  0  0  0
  2 10  1  0
  2 11  1  0
  2 18  2  0
  2 22  1  0
  3 12  1  0
  3 13  1  0
  3 19  2  0
  3 22  1  0
  4 14  1  0
  4 15  1  0
  4 20  2  0
  4 23  1  0
  5 16  1  0
  5 17  1  0
  5 21  2  0
  5 23  1  0
M  CHG  8   1   4   6   1   7   1   8   1   9   1  10  -1  11  -1  12  -1
M  CHG  5  13  -1  14  -1  15  -1  16  -1  17  -1
M  ISO  1   1  99
M  END
