49800005
     RDKit          2D

 16 14  0  0  1  0  0  0  0  0999 V2000
    3.7510    0.0000    0.0000 Tc  0  0  0  0  0 15  0  0  0  0  0  0
    4.0010    2.8100    0.0000 O   0  0  0  0  0  0  0  0  0  0  0  0
    3.1350    5.3100    0.0000 O   0  0  0  0  0  0  0  0  0  0  0  0
    4.8671    5.3100    0.0000 O   0  0  0  0  0  0  0  0  0  0  0  0
    2.2690    2.8100    0.0000 O   0  0  0  0  0  0  0  0  0  0  0  0
    5.7331    2.8100    0.0000 O   0  0  0  0  0  0  0  0  0  0  0  0
    0.5369    3.8100    0.0000 O   0  0  0  0  0  0  0  0  0  0  0  0
    7.4651    3.8100    0.0000 O   0  0  0  0  0  0  0  0  0  0  0  0
    6.5991    5.3100    0.0000 O   0  0  0  0  0  0  0  0  0  0  0  0
    4.0010    3.8100    0.0000 C   0  0  0  0  0  0  0  0  0  0  0  0
    3.1350    4.3100    0.0000 C   0  0  0  0  0  0  0  0  0  0  0  0
    4.8671    4.3100    0.0000 C   0  0  0  0  0  0  0  0  0  0  0  0
    2.2690    3.8100    0.0000 C   0  0  0  0  0  0  0  0  0  0  0  0
    5.7331    3.8100    0.0000 C   0  0  0  0  0  0  0  0  0  0  0  0
    1.4030    4.3100    0.0000 C   0  0  0  0  0  0  0  0  0  0  0  0
    6.5991    4.3100    0.0000 C   0  0  0  0  0  0  0  0  0  0  0  0
 10  2  1  1
 11  3  1  1
 12  4  1  1
 13  5  1  6
 14  6  1  6
  7 15  1  0
  8 16  1  0
  9 16  2  0
 10 11  1  0
 10 12  1  0
 11 13  1  0
 12 14  1  0
 13 15  1  0
 14 16  1  0
M  ISO  1   1  99
M  END
