133-62-0.mol
     RDKit          2D

 37 39  0  0  0  0  0  0  0  0999 V2000
    0.7122   -0.7322    0.0000 C   0  0  0  0  0  0  0  0  0  0  0  0
    0.7122   -1.5486    0.0000 C   0  0  0  0  0  0  0  0  0  0  0  0
    0.0128   -0.3240    0.0000 C   0  0  0  0  0  0  0  0  0  0  0  0
    1.4258   -0.3240    0.0000 C   0  0  0  0  0  0  0  0  0  0  0  0
    0.0128   -1.9625    0.0000 C   0  0  0  0  0  0  0  0  0  0  0  0
    1.4258   -1.9625    0.0000 C   0  0  0  0  0  0  0  0  0  0  0  0
    0.7122   -2.3736    0.0000 O   0  0  0  0  0  0  0  0  0  0  0  0
   -0.7008   -0.7322    0.0000 C   0  0  0  0  0  0  0  0  0  0  0  0
    2.1395   -0.7322    0.0000 C   0  0  0  0  0  0  0  0  0  0  0  0
    1.4258    0.5067    0.0000 N   0  0  0  0  0  0  0  0  0  0  0  0
   -0.7008   -1.5486    0.0000 C   0  0  0  0  0  0  0  0  0  0  0  0
    0.0128   -2.7875    0.0000 O   0  0  0  0  0  0  0  0  0  0  0  0
    2.1395   -1.5486    0.0000 C   0  0  0  0  0  0  0  0  0  0  0  0
    1.4258   -2.7875    0.0000 O   0  0  0  0  0  0  0  0  0  0  0  0
   -1.4173   -0.3240    0.0000 C   0  0  0  0  0  0  0  0  0  0  0  0
    2.8531   -0.3240    0.0000 O   0  0  0  0  0  0  0  0  0  0  0  0
    2.1395    0.9206    0.0000 C   0  0  0  0  0  0  0  0  0  0  0  0
    0.7122    0.9206    0.0000 C   0  0  0  0  0  0  0  0  0  0  0  0
   -1.4173   -1.9625    0.0000 C   0  0  0  0  0  0  0  0  0  0  0  0
    2.8531   -1.9625    0.0000 C   0  0  0  0  0  0  0  0  0  0  0  0
   -2.1309   -0.7322    0.0000 C   0  0  0  0  0  0  0  0  0  0  0  0
   -1.0034    0.3925    0.0000 C   0  0  0  0  0  0  0  0  0  0  0  0
   -1.8283    0.3925    0.0000 O   0  0  0  0  0  0  0  0  0  0  0  0
   -2.1309   -1.5486    0.0000 C   0  0  0  0  0  0  0  0  0  0  0  0
   -1.4173   -2.7875    0.0000 O   0  0  0  0  0  0  0  0  0  0  0  0
    3.5667   -1.5486    0.0000 N   0  0  0  0  0  0  0  0  0  0  0  0
    2.8531   -2.7875    0.0000 O   0  0  0  0  0  0  0  0  0  0  0  0
   -2.8445   -0.3240    0.0000 C   0  0  0  0  0  0  0  0  0  0  0  0
   -2.8445   -1.9625    0.0000 C   0  0  0  0  0  0  0  0  0  0  0  0
   -3.5667   -0.7322    0.0000 C   0  0  0  0  0  0  0  0  0  0  0  0
   -3.5610   -1.5486    0.0000 C   0  0  0  0  0  0  0  0  0  0  0  0
   -2.8445   -2.7875    0.0000 O   0  0  0  0  0  0  0  0  0  0  0  0
   -2.0167    1.9397    0.0000 P   0  0  0  0  0  0  0  0  0  0  0  0
   -1.6000    1.2375    0.0000 O   0  0  0  0  0  0  0  0  0  0  0  0
   -2.7560    1.7198    0.0000 O   0  0  0  0  0  0  0  0  0  0  0  0
   -1.1632    1.9226    0.0000 O   0  0  0  0  0  0  0  0  0  0  0  0
   -2.0167    2.7875    0.0000 O   0  0  0  0  0  0  0  0  0  0  0  0
  1  2  1  0
  1  3  1  1
  1  4  1  0
  2  5  1  0
  2  6  1  0
  2  7  1  6
  8  3  1  1
  4  9  1  0
  4 10  1  6
  5 11  2  0
  5 12  1  0
  6 13  1  0
  6 14  2  0
  8 15  1  0
  8 11  1  0
  9 16  1  0
  9 13  2  0
 10 17  1  0
 10 18  1  0
 11 19  1  0
 13 20  1  0
 15 21  1  0
 15 22  1  6
 15 23  1  0
 19 24  1  0
 19 25  2  0
 20 26  1  0
 20 27  2  0
 21 28  2  0
 21 24  1  0
 24 29  2  0
 28 30  1  0
 29 31  1  0
 29 32  1  0
 30 31  2  0
 33 34  1  0
 33 35  1  0
 33 36  1  0
 33 37  2  0
M  END
