6326947
     RDKit          2D

 51 48  0  0  0  0  0  0  0  0999 V2000
    7.1485    0.0000    0.0000 Tc  0  0  0  0  0  4  0  0  0  0  0  0
    7.9575    0.5878    0.0000 P   0  0  0  0  0  0  0  0  0  0  0  0
    7.9575   -0.5878    0.0000 P   0  0  0  0  0  0  0  0  0  0  0  0
    6.3395   -0.5878    0.0000 P   0  0  0  0  0  0  0  0  0  0  0  0
    6.3395    0.5878    0.0000 P   0  0  0  0  0  0  0  0  0  0  0  0
    6.8729   -0.9613    0.0000 O   0  0  0  0  0  0  0  0  0  0  0  0
    7.4241   -0.9613    0.0000 O   0  0  0  0  0  0  0  0  0  0  0  0
   10.0675    2.1840    0.0000 O   0  0  0  0  0  0  0  0  0  0  0  0
   10.6028    0.6389    0.0000 O   0  0  0  0  0  0  0  0  0  0  0  0
   10.0675   -2.1840    0.0000 O   0  0  0  0  0  0  0  0  0  0  0  0
   10.6028   -0.6389    0.0000 O   0  0  0  0  0  0  0  0  0  0  0  0
    4.2294   -2.1840    0.0000 O   0  0  0  0  0  0  0  0  0  0  0  0
    3.6942   -0.6389    0.0000 O   0  0  0  0  0  0  0  0  0  0  0  0
    4.2294    2.1840    0.0000 O   0  0  0  0  0  0  0  0  0  0  0  0
    3.6942    0.6389    0.0000 O   0  0  0  0  0  0  0  0  0  0  0  0
    6.6485   -1.5388    0.0000 C   0  0  0  0  0  0  0  0  0  0  0  0
    7.6485   -1.5388    0.0000 C   0  0  0  0  0  0  0  0  0  0  0  0
    7.6485    1.5388    0.0000 C   0  0  0  0  0  0  0  0  0  0  0  0
    6.6485    1.5388    0.0000 C   0  0  0  0  0  0  0  0  0  0  0  0
    8.9086    0.8968    0.0000 C   0  0  0  0  0  0  0  0  0  0  0  0
    8.9086    0.2788    0.0000 C   0  0  0  0  0  0  0  0  0  0  0  0
    8.9086   -0.8968    0.0000 C   0  0  0  0  0  0  0  0  0  0  0  0
    8.9086   -0.2788    0.0000 C   0  0  0  0  0  0  0  0  0  0  0  0
    5.3884   -0.8968    0.0000 C   0  0  0  0  0  0  0  0  0  0  0  0
    5.3884   -0.2788    0.0000 C   0  0  0  0  0  0  0  0  0  0  0  0
    5.3884    0.8968    0.0000 C   0  0  0  0  0  0  0  0  0  0  0  0
    5.3884    0.2788    0.0000 C   0  0  0  0  0  0  0  0  0  0  0  0
    9.1165    1.8750    0.0000 C   0  0  0  0  0  0  0  0  0  0  0  0
    9.6517    0.9479    0.0000 C   0  0  0  0  0  0  0  0  0  0  0  0
    9.1165   -1.8750    0.0000 C   0  0  0  0  0  0  0  0  0  0  0  0
    9.6517   -0.9479    0.0000 C   0  0  0  0  0  0  0  0  0  0  0  0
    5.1805   -1.8750    0.0000 C   0  0  0  0  0  0  0  0  0  0  0  0
    4.6453   -0.9479    0.0000 C   0  0  0  0  0  0  0  0  0  0  0  0
    5.1805    1.8750    0.0000 C   0  0  0  0  0  0  0  0  0  0  0  0
    4.6453    0.9479    0.0000 C   0  0  0  0  0  0  0  0  0  0  0  0
   10.2754    3.1621    0.0000 C   0  0  0  0  0  0  0  0  0  0  0  0
   11.3459    1.3080    0.0000 C   0  0  0  0  0  0  0  0  0  0  0  0
   10.2754   -3.1621    0.0000 C   0  0  0  0  0  0  0  0  0  0  0  0
   11.3459   -1.3080    0.0000 C   0  0  0  0  0  0  0  0  0  0  0  0
    4.0215   -3.1621    0.0000 C   0  0  0  0  0  0  0  0  0  0  0  0
    2.9511   -1.3080    0.0000 C   0  0  0  0  0  0  0  0  0  0  0  0
    4.0215    3.1621    0.0000 C   0  0  0  0  0  0  0  0  0  0  0  0
    2.9511    1.3080    0.0000 C   0  0  0  0  0  0  0  0  0  0  0  0
   11.2265    3.4711    0.0000 C   0  0  0  0  0  0  0  0  0  0  0  0
   12.2970    0.9990    0.0000 C   0  0  0  0  0  0  0  0  0  0  0  0
   11.2265   -3.4711    0.0000 C   0  0  0  0  0  0  0  0  0  0  0  0
   12.2970   -0.9990    0.0000 C   0  0  0  0  0  0  0  0  0  0  0  0
    3.0705   -3.4711    0.0000 C   0  0  0  0  0  0  0  0  0  0  0  0
    2.0000   -0.9990    0.0000 C   0  0  0  0  0  0  0  0  0  0  0  0
    3.0705    3.4711    0.0000 C   0  0  0  0  0  0  0  0  0  0  0  0
    2.0000    0.9990    0.0000 C   0  0  0  0  0  0  0  0  0  0  0  0
  1  6  2  0
  1  7  2  0
  2 18  1  0
  2 20  1  0
  2 21  1  0
  3 17  1  0
  3 22  1  0
  3 23  1  0
  4 16  1  0
  4 24  1  0
  4 25  1  0
  5 19  1  0
  5 26  1  0
  5 27  1  0
  8 28  1  0
  8 36  1  0
  9 29  1  0
  9 37  1  0
 10 30  1  0
 10 38  1  0
 11 31  1  0
 11 39  1  0
 12 32  1  0
 12 40  1  0
 13 33  1  0
 13 41  1  0
 14 34  1  0
 14 42  1  0
 15 35  1  0
 15 43  1  0
 16 17  1  0
 18 19  1  0
 20 28  1  0
 21 29  1  0
 22 30  1  0
 23 31  1  0
 24 32  1  0
 25 33  1  0
 26 34  1  0
 27 35  1  0
 36 44  1  0
 37 45  1  0
 38 46  1  0
 39 47  1  0
 40 48  1  0
 41 49  1  0
 42 50  1  0
 43 51  1  0
M  CHG  4   2   1   3   1   4   1   5   1
M  ISO  1   1  99
M  END
