71587286
     RDKit          2D

 23 21  0  0  0  0  0  0  0  0999 V2000
    4.6310   -3.4294    0.0000 Tc  0  0  0  0  0 15  0  0  0  0  0  0
    4.8485    0.5715    0.0000 O   0  0  0  0  0  0  0  0  0  0  0  0
    5.3381   -2.7223    0.0000 O   0  0  0  0  0  0  0  0  0  0  0  0
    3.6310   -3.4294    0.0000 O   0  0  0  0  0  0  0  0  0  0  0  0
    6.2620   -1.3396    0.0000 O   0  0  0  0  0  0  0  0  0  0  0  0
    2.0000   -3.1050    0.0000 O   0  0  0  0  0  0  0  0  0  0  0  0
    5.3381   -4.1365    0.0000 O   0  0  0  0  0  0  0  0  0  0  0  0
    3.6310   -1.0152    0.0000 N   0  0  0  0  0  0  0  0  0  0  0  0
    3.4744    1.6259    0.0000 N   0  0  0  0  0  0  0  0  0  0  0  0
    3.2483   -0.0913    0.0000 C   0  0  0  0  0  0  0  0  0  0  0  0
    4.0831    2.4193    0.0000 C   0  0  0  0  0  0  0  0  0  0  0  0
    3.8571    0.7020    0.0000 C   0  0  0  0  0  0  0  0  0  0  0  0
    4.6310   -1.0152    0.0000 C   0  0  0  0  0  0  0  0  0  0  0  0
    2.9239   -1.7223    0.0000 C   0  0  0  0  0  0  0  0  0  0  0  0
    3.7005    3.3432    0.0000 C   0  0  0  0  0  0  0  0  0  0  0  0
    5.0746    2.2888    0.0000 C   0  0  0  0  0  0  0  0  0  0  0  0
    4.3092    4.1365    0.0000 C   0  0  0  0  0  0  0  0  0  0  0  0
    5.6834    3.0821    0.0000 C   0  0  0  0  0  0  0  0  0  0  0  0
    2.7090    3.4737    0.0000 C   0  0  0  0  0  0  0  0  0  0  0  0
    5.4573    1.3649    0.0000 C   0  0  0  0  0  0  0  0  0  0  0  0
    5.3007    4.0060    0.0000 C   0  0  0  0  0  0  0  0  0  0  0  0
    5.3381   -1.7223    0.0000 C   0  0  0  0  0  0  0  0  0  0  0  0
    2.9239   -2.7223    0.0000 C   0  0  0  0  0  0  0  0  0  0  0  0
  2 12  2  0
  3 22  1  0
  4 23  1  0
  5 22  2  0
  6 23  2  0
  8 10  1  0
  8 13  1  0
  8 14  1  0
  9 11  1  0
  9 12  1  0
 10 12  1  0
 11 15  2  0
 11 16  1  0
 13 22  1  0
 14 23  1  0
 15 17  1  0
 15 19  1  0
 16 18  2  0
 16 20  1  0
 17 21  2  0
 18 21  1  0
M  CHG  4   1   4   3  -1   4  -1   7  -2
M  END
