76957057
     RDKit          2D

  9  8  0  0  0  0  0  0  0  0999 V2000
    0.9571    0.0000    0.0000 Tc  0  0  0  0  0 15  0  0  0  0  0  0
    1.7071    2.5000    0.0000 S   0  0  0  0  0  0  0  0  0  0  0  0
    0.7071    2.5000    0.0000 S   0  0  0  0  0  0  0  0  0  0  0  0
    2.4142    3.2071    0.0000 S   0  0  0  0  0  0  0  0  0  0  0  0
    0.0000    3.2071    0.0000 S   0  0  0  0  0  0  0  0  0  0  0  0
    2.4142    4.2071    0.0000 S   0  0  0  0  0  0  0  0  0  0  0  0
    0.0000    4.2071    0.0000 S   0  0  0  0  0  0  0  0  0  0  0  0
    1.7071    4.9142    0.0000 S   0  0  0  0  0  0  0  0  0  0  0  0
    0.7071    4.9142    0.0000 S   0  0  0  0  0  0  0  0  0  0  0  0
  2  3  1  0
  2  4  1  0
  3  5  1  0
  4  6  1  0
  5  7  1  0
  6  8  1  0
  7  9  1  0
  8  9  1  0
M  ISO  1   1  99
M  END
