121596604
     RDKit          2D

 32 26  0  0  0  0  0  0  0  0999 V2000
    8.9282    3.9875    0.0000 Tc  0  0  0  0  0 15  0  0  0  0  0  0
    0.8660    2.0000    0.0000 Ca  0  0  0  0  0 15  0  0  0  0  0  0
    2.5981    0.0000    0.0000 Na  0  0  0  0  0 15  0  0  0  0  0  0
    6.9282    7.5000    0.0000 Na  0  0  0  0  0 15  0  0  0  0  0  0
    0.0000    7.5000    0.0000 Na  0  0  0  0  0 15  0  0  0  0  0  0
    0.8660    3.0000    0.0000 O   0  0  0  0  0  0  0  0  0  0  0  0
    2.5981    3.0000    0.0000 O   0  0  0  0  0  0  0  0  0  0  0  0
    3.4641    0.5000    0.0000 O   0  0  0  0  0  0  0  0  0  0  0  0
    6.9282    3.5000    0.0000 O   0  0  0  0  0  0  0  0  0  0  0  0
    6.0622    8.0000    0.0000 O   0  0  0  0  0  0  0  0  0  0  0  0
    0.8660    8.0000    0.0000 O   0  0  0  0  0  0  0  0  0  0  0  0
    2.5981    2.0000    0.0000 O   0  0  0  0  0  0  0  0  0  0  0  0
    6.0622    2.0000    0.0000 O   0  0  0  0  0  0  0  0  0  0  0  0
    5.1962    6.5000    0.0000 O   0  0  0  0  0  0  0  0  0  0  0  0
    1.7320    6.5000    0.0000 O   0  0  0  0  0  0  0  0  0  0  0  0
    2.5981    5.0000    0.0000 N   0  0  0  0  0  0  0  0  0  0  0  0
    4.3301    3.0000    0.0000 N   0  0  0  0  0  0  0  0  0  0  0  0
    3.4641    7.5000    0.0000 N   0  0  0  0  0  0  0  0  0  0  0  0
    3.4641    4.5000    0.0000 C   0  0  0  0  0  0  0  0  0  0  0  0
    2.5981    6.0000    0.0000 C   0  0  0  0  0  0  0  0  0  0  0  0
    3.4641    3.5000    0.0000 C   0  0  0  0  0  0  0  0  0  0  0  0
    3.4641    6.5000    0.0000 C   0  0  0  0  0  0  0  0  0  0  0  0
    1.7320    4.5000    0.0000 C   0  0  0  0  0  0  0  0  0  0  0  0
    4.3301    2.0000    0.0000 C   0  0  0  0  0  0  0  0  0  0  0  0
    5.1962    3.5000    0.0000 C   0  0  0  0  0  0  0  0  0  0  0  0
    4.3301    8.0000    0.0000 C   0  0  0  0  0  0  0  0  0  0  0  0
    2.5981    8.0000    0.0000 C   0  0  0  0  0  0  0  0  0  0  0  0
    1.7320    3.5000    0.0000 C   0  0  0  0  0  0  0  0  0  0  0  0
    3.4641    1.5000    0.0000 C   0  0  0  0  0  0  0  0  0  0  0  0
    6.0622    3.0000    0.0000 C   0  0  0  0  0  0  0  0  0  0  0  0
    5.1962    7.5000    0.0000 C   0  0  0  0  0  0  0  0  0  0  0  0
    1.7320    7.5000    0.0000 C   0  0  0  0  0  0  0  0  0  0  0  0
  6 28  1  0
  7 28  2  0
  8 29  1  0
  9 30  1  0
 10 31  1  0
 11 32  1  0
 12 29  2  0
 13 30  2  0
 14 31  2  0
 15 32  2  0
 16 19  1  0
 16 20  1  0
 16 23  1  0
 17 21  1  0
 17 24  1  0
 17 25  1  0
 18 22  1  0
 18 26  1  0
 18 27  1  0
 19 21  1  0
 20 22  1  0
 23 28  1  0
 24 29  1  0
 25 30  1  0
 26 31  1  0
 27 32  1  0
M  CHG  8   2   2   3   1   4   1   5   1   6  -1   8  -1   9  -1  10  -1
M  CHG  1  11  -1
M  ISO  1   1  99
M  END
