11430828
     RDKit          2D

 26 25  0  0  0  0  0  0  0  0999 V2000
    8.2700    3.8532    0.0000 Tc  0  0  0  0  0 15  0  0  0  0  0  0
    4.4618    4.7333    0.0000 O   0  0  0  0  0  0  0  0  0  0  0  0
    0.9059    7.6239    0.0000 O   0  0  0  0  0  0  0  0  0  0  0  0
    5.4879    7.5524    0.0000 O   0  0  0  0  0  0  0  0  0  0  0  0
    1.2066    5.9181    0.0000 O   0  0  0  0  0  0  0  0  0  0  0  0
    3.8603    8.1448    0.0000 O   0  0  0  0  0  0  0  0  0  0  0  0
    3.1350    3.6200    0.0000 N   0  0  0  0  0  0  0  0  0  0  0  0
    3.1763    6.2654    0.0000 N   0  0  0  0  0  0  0  0  0  0  0  0
    2.2690    2.1200    0.0000 C   0  0  0  0  0  0  0  0  0  0  0  0
    4.0010    2.1200    0.0000 C   0  0  0  0  0  0  0  0  0  0  0  0
    3.1350    2.6200    0.0000 C   0  0  0  0  0  0  0  0  0  0  0  0
    1.4030    2.6200    0.0000 C   0  0  0  0  0  0  0  0  0  0  0  0
    4.8671    2.6200    0.0000 C   0  0  0  0  0  0  0  0  0  0  0  0
    2.2690    1.1200    0.0000 C   0  0  0  0  0  0  0  0  0  0  0  0
    4.0010    1.1200    0.0000 C   0  0  0  0  0  0  0  0  0  0  0  0
    0.5369    2.1200    0.0000 C   0  0  0  0  0  0  0  0  0  0  0  0
    1.4030    3.6200    0.0000 C   0  0  0  0  0  0  0  0  0  0  0  0
    5.7331    2.1200    0.0000 C   0  0  0  0  0  0  0  0  0  0  0  0
    5.5098    3.3860    0.0000 C   0  0  0  0  0  0  0  0  0  0  0  0
    3.1350    0.6200    0.0000 C   0  0  0  0  0  0  0  0  0  0  0  0
    2.8342    5.3257    0.0000 C   0  0  0  0  0  0  0  0  0  0  0  0
    3.4770    4.5597    0.0000 C   0  0  0  0  0  0  0  0  0  0  0  0
    2.5335    7.0315    0.0000 C   0  0  0  0  0  0  0  0  0  0  0  0
    4.1611    6.4391    0.0000 C   0  0  0  0  0  0  0  0  0  0  0  0
    1.5487    6.8578    0.0000 C   0  0  0  0  0  0  0  0  0  0  0  0
    4.5031    7.3788    0.0000 C   0  0  0  0  0  0  0  0  0  0  0  0
  2 22  2  0
  3 25  1  0
  4 26  1  0
  5 25  2  0
  6 26  2  0
  7 11  1  0
  7 22  1  0
  8 21  1  0
  8 23  1  0
  8 24  1  0
  9 11  2  0
  9 12  1  0
  9 14  1  0
 10 11  1  0
 10 13  1  0
 10 15  2  0
 12 16  1  0
 12 17  1  0
 13 18  1  0
 13 19  1  0
 14 20  2  0
 15 20  1  0
 21 22  1  0
 23 25  1  0
 24 26  1  0
M  ISO  1   1  99
M  END
