6452753
     RDKit          2D

 10  8  0  0  0  0  0  0  0  0999 V2000
    5.0000    0.8660    0.0000 Tc  0  0  0  0  0 15  0  0  0  0  0  0
    4.0000   -0.1340    0.0000 P   0  0  0  0  0  0  0  0  0  0  0  0
    2.5000   -1.0000    0.0000 P   0  0  0  0  0  0  0  0  0  0  0  0
    3.0000   -0.1340    0.0000 O   0  0  0  0  0  0  0  0  0  0  0  0
    5.0000   -0.1340    0.0000 O   0  0  0  0  0  0  0  0  0  0  0  0
    4.0000    0.8660    0.0000 O   0  0  0  0  0  0  0  0  0  0  0  0
    6.0000    0.8660    0.0000 O   0  0  0  0  0  0  0  0  0  0  0  0
    5.0000    1.8660    0.0000 O   0  0  0  0  0  0  0  0  0  0  0  0
    4.0000   -1.1340    0.0000 O   0  0  0  0  0  0  0  0  0  0  0  0
    2.0000   -1.8660    0.0000 O   0  0  0  0  0  0  0  0  0  0  0  0
  2  4  1  0
  2  5  1  0
  2  6  1  0
  2  9  2  0
  3  4  1  0
  3  7  1  0
  3  8  1  0
  3 10  2  0
M  CHG  5   1   4   5  -1   6  -1   7  -1   8  -1
M  ISO  1   1  99
M  END
