11431716
     RDKit          2D

 24 23  0  0  0  0  0  0  0  0999 V2000
    9.1360    4.4650    0.0000 Tc  0  0  0  0  0 15  0  0  0  0  0  0
    0.5369    1.6200    0.0000 Br  0  0  0  0  0  0  0  0  0  0  0  0
    4.0010    4.6200    0.0000 O   0  0  0  0  0  0  0  0  0  0  0  0
    3.1350    9.1200    0.0000 O   0  0  0  0  0  0  0  0  0  0  0  0
    6.5991    6.1200    0.0000 O   0  0  0  0  0  0  0  0  0  0  0  0
    2.2690    7.6200    0.0000 O   0  0  0  0  0  0  0  0  0  0  0  0
    5.7331    7.6200    0.0000 O   0  0  0  0  0  0  0  0  0  0  0  0
    4.0010    6.6200    0.0000 N   0  0  0  0  0  0  0  0  0  0  0  0
    2.2690    4.6200    0.0000 N   0  0  0  0  0  0  0  0  0  0  0  0
    2.2690    3.6200    0.0000 C   0  0  0  0  0  0  0  0  0  0  0  0
    3.1350    6.1200    0.0000 C   0  0  0  0  0  0  0  0  0  0  0  0
    1.4030    3.1200    0.0000 C   0  0  0  0  0  0  0  0  0  0  0  0
    3.1350    3.1200    0.0000 C   0  0  0  0  0  0  0  0  0  0  0  0
    3.1350    5.1200    0.0000 C   0  0  0  0  0  0  0  0  0  0  0  0
    2.2690    1.6200    0.0000 C   0  0  0  0  0  0  0  0  0  0  0  0
    1.4030    2.1200    0.0000 C   0  0  0  0  0  0  0  0  0  0  0  0
    3.1350    2.1200    0.0000 C   0  0  0  0  0  0  0  0  0  0  0  0
    4.0010    7.6200    0.0000 C   0  0  0  0  0  0  0  0  0  0  0  0
    4.8671    6.1200    0.0000 C   0  0  0  0  0  0  0  0  0  0  0  0
    0.5369    3.6200    0.0000 C   0  0  0  0  0  0  0  0  0  0  0  0
    4.0010    3.6200    0.0000 C   0  0  0  0  0  0  0  0  0  0  0  0
    2.2690    0.6200    0.0000 C   0  0  0  0  0  0  0  0  0  0  0  0
    3.1350    8.1200    0.0000 C   0  0  0  0  0  0  0  0  0  0  0  0
    5.7331    6.6200    0.0000 C   0  0  0  0  0  0  0  0  0  0  0  0
  2 16  1  0
  3 14  2  0
  4 23  1  0
  5 24  1  0
  6 23  2  0
  7 24  2  0
  8 11  1  0
  8 18  1  0
  8 19  1  0
  9 10  1  0
  9 14  1  0
 10 12  2  0
 10 13  1  0
 11 14  1  0
 12 16  1  0
 12 20  1  0
 13 17  2  0
 13 21  1  0
 15 16  2  0
 15 17  1  0
 15 22  1  0
 18 23  1  0
 19 24  1  0
M  ISO  1   1  99
M  END
