 
     RDKit          2D

 32 35  0  0  1  0  0  0  0  0999 V2000
    6.5800  -21.5600    0.0000 C   0  0  0  0  0  0  0  0  0  0  0  0
    6.5800  -22.9600    0.0000 C   0  0  0  0  0  0  0  0  0  0  0  0
    7.7700  -23.5900    0.0000 C   0  0  0  0  0  0  0  0  0  0  0  0
    8.9600  -22.9600    0.0000 C   0  0  0  0  0  0  0  0  0  0  0  0
    8.9600  -21.5600    0.0000 C   0  0  0  0  0  0  0  0  0  0  0  0
    7.7700  -20.8600    0.0000 C   0  0  0  0  0  0  0  0  0  0  0  0
   10.1500  -23.5900    0.0000 C   0  0  0  0  0  0  0  0  0  0  0  0
   11.2700  -22.9600    0.0000 C   0  0  0  0  0  0  0  0  0  0  0  0
   11.2700  -21.5600    0.0000 C   0  0  0  0  0  0  0  0  0  0  0  0
   10.1500  -20.8600    0.0000 C   0  0  0  0  0  0  0  0  0  0  0  0
   12.4600  -20.8600    0.0000 C   0  0  0  0  0  0  0  0  0  0  0  0
   12.4600  -19.5300    0.0000 C   0  0  0  0  0  0  0  0  0  0  0  0
   11.2700  -18.8300    0.0000 C   0  0  0  0  0  0  0  0  0  0  0  0
   10.1500  -19.5300    0.0000 C   0  0  0  0  0  0  0  0  0  0  0  0
   14.8400  -20.8600    0.0000 C   0  0  0  0  0  0  0  0  0  0  0  0
   14.8400  -19.5300    0.0000 C   0  0  0  0  0  0  0  0  0  0  0  0
   13.6500  -18.8300    0.0000 C   0  0  0  0  0  0  0  0  0  0  0  0
    5.3900  -23.5900    0.0000 O   0  0  0  0  0  0  0  0  0  0  0  0
   13.6500  -17.4300    0.0000 C   0  0  0  0  0  0  0  0  0  0  0  0
   12.5300  -16.8000    0.0000 O   0  0  0  0  0  0  0  0  0  0  0  0
   14.8400  -18.2700    0.0000 O   0  0  0  0  0  0  0  0  0  0  0  0
    8.9600  -18.8300    0.0000 O   0  0  0  0  0  0  0  0  0  0  0  0
    8.9600  -20.2300    0.0000 C   0  0  0  0  0  0  0  0  0  0  0  0
   12.4600  -18.1300    0.0000 C   0  0  0  0  0  0  0  0  0  0  0  0
   14.8400  -16.7300    0.0000 C   0  0  0  0  0  0  0  0  0  0  0  0
   16.0300  -17.4300    0.0000 S   0  0  0  0  0  0  0  0  0  0  0  0
   17.2200  -16.7300    0.0000 C   0  0  0  0  0  0  0  0  0  0  0  0
   18.4100  -17.4300    0.0000 C   0  0  0  0  0  0  0  0  0  0  0  0
   17.2200  -15.3300    0.0000 O   0  0  0  0  0  0  0  0  0  0  0  0
   19.6224  -18.1300    0.0000 C   0  0  0  0  0  0  0  0  0  0  0  0
   19.1100  -16.2176    0.0000 C   0  0  0  0  0  0  0  0  0  0  0  0
   17.7100  -18.6424    0.0000 C   0  0  0  0  0  0  0  0  0  0  0  0
  1  2  1  0
  2  3  1  0
  3  4  2  0
  4  5  1  0
  5  6  1  0
  1  6  1  0
  4  7  1  0
  7  8  1  0
  9  8  1  6
  9 10  1  0
  5 10  1  0
  9 11  1  0
 11 12  1  0
 12 13  1  0
 13 14  1  0
 10 14  1  1
 11 15  1  1
 15 16  1  0
 16 17  1  0
 12 17  1  0
  2 18  2  0
 17 19  1  0
 19 20  2  0
 17 21  1  6
 14 22  1  1
  5 23  1  1
 12 24  1  1
 25 26  1  0
 25 19  1  0
 26 27  1  0
 27 28  1  0
 27 29  2  0
 28 30  1  0
 28 31  1  0
 28 32  1  0
M  END
