32281
     RDKit          2D

 26 28  0  0  1  0  0  0  0  0999 V2000
    7.0468    0.8968    0.0000 O   0  0  0  0  0  0  0  0  0  0  0  0
    8.1487    1.6974    0.0000 O   0  0  0  0  0  0  0  0  0  0  0  0
    7.0468   -0.1032    0.0000 O   0  0  0  0  0  0  0  0  0  0  0  0
    7.2685   -3.9511    0.0000 O   0  0  0  0  0  0  0  0  0  0  0  0
    6.1808    2.3968    0.0000 N   0  0  0  0  0  0  0  0  0  0  0  0
    5.3147   -0.1032    0.0000 N   0  0  0  0  0  0  0  0  0  0  0  0
    6.9898   -2.1910    0.0000 N   0  0  0  0  0  0  0  0  0  0  0  0
    8.6840    3.3446    0.0000 N   0  0  0  0  0  0  0  0  0  0  0  0
    3.4782   -0.0978    0.0000 N   0  0  0  0  0  0  0  0  0  0  0  0
    2.0000    0.5603    0.0000 N   0  0  0  0  0  0  0  0  0  0  0  0
    6.9898    2.9845    0.0000 C   0  0  0  0  0  0  0  0  0  0  0  0
    6.6808    3.9356    0.0000 C   0  0  0  0  0  0  0  0  0  0  0  0
    5.3717    2.9845    0.0000 C   0  0  0  0  0  0  0  0  0  0  0  0
    5.6808    3.9356    0.0000 C   0  0  0  0  0  0  0  0  0  0  0  0
    5.3147    0.8968    0.0000 C   0  0  0  0  0  0  0  0  0  0  0  0
    6.1808    1.3968    0.0000 C   0  0  0  0  0  0  0  0  0  0  0  0
    6.1808   -1.6032    0.0000 C   0  0  0  0  0  0  0  0  0  0  0  0
    7.9408    2.6755    0.0000 C   0  0  0  0  0  0  0  0  0  0  0  0
    4.4487    1.3968    0.0000 C   0  0  0  0  0  0  0  0  0  0  0  0
    5.3717   -2.1910    0.0000 C   0  0  0  0  0  0  0  0  0  0  0  0
    6.1808   -0.6032    0.0000 C   0  0  0  0  0  0  0  0  0  0  0  0
    5.6808   -3.1421    0.0000 C   0  0  0  0  0  0  0  0  0  0  0  0
    6.6808   -3.1421    0.0000 C   0  0  0  0  0  0  0  0  0  0  0  0
    3.5827    0.8968    0.0000 C   0  0  0  0  0  0  0  0  0  0  0  0
    2.6691    1.3035    0.0000 C   0  0  0  0  0  0  0  0  0  0  0  0
    2.5000   -0.3057    0.0000 C   0  0  0  0  0  0  0  0  0  0  0  0
  1 16  2  0
  2 18  2  0
  3 21  2  0
  4 23  2  0
  5 11  1  0
  5 13  1  0
  5 16  1  0
  6 15  1  0
  6 21  1  0
  7 17  1  0
  7 23  1  0
  8 18  1  0
  9 24  1  0
  9 26  1  0
 10 25  1  0
 10 26  2  0
 11 12  1  0
 11 18  1  0
 12 14  1  0
 13 14  1  0
 15 16  1  0
 15 19  1  0
 17 20  1  0
 17 21  1  0
 19 24  1  0
 20 22  1  0
 22 23  1  0
 24 25  2  0
M  END
