75409771
     RDKit          2D

 67 69  0  0  1  0  0  0  0  0999 V2000
    8.5991   -1.3891    0.0000 S   0  0  0  0  0  0  0  0  0  0  0  0
    9.4651   -1.8891    0.0000 S   0  0  0  0  0  0  0  0  0  0  0  0
    7.5907    1.4655    0.0000 O   0  0  0  0  0  0  0  0  0  0  0  0
    7.7331    0.1109    0.0000 O   0  0  0  0  0  0  0  0  0  0  0  0
    7.7101    5.0691    0.0000 O   0  0  0  0  0  0  0  0  0  0  0  0
    6.8671   -3.3891    0.0000 O   0  0  0  0  0  0  0  0  0  0  0  0
    8.5991   -3.3891    0.0000 O   0  0  0  0  0  0  0  0  0  0  0  0
    6.5663   -2.6834    0.0000 O   0  0  0  0  0  0  0  0  0  0  0  0
    6.0010   -5.8891    0.0000 O   0  0  0  0  0  0  0  0  0  0  0  0
   11.1972   -5.8891    0.0000 O   0  0  0  0  0  0  0  0  0  0  0  0
    3.4030   -4.3891    0.0000 O   0  0  0  0  0  0  0  0  0  0  0  0
   10.1972   -2.8891    0.0000 O   0  0  0  0  0  0  0  0  0  0  0  0
    4.1138    5.3270    0.0000 O   0  0  0  0  0  0  0  0  0  0  0  0
   16.3933   -2.8891    0.0000 O   0  0  0  0  0  0  0  0  0  0  0  0
    6.0010    0.1109    0.0000 N   0  0  0  0  0  0  0  0  0  0  0  0
    6.4317    2.7527    0.0000 N   0  0  0  0  0  0  0  0  0  0  0  0
    6.0010   -1.8891    0.0000 N   0  0  0  0  0  0  0  0  0  0  0  0
    6.0159    4.7090    0.0000 N   0  0  0  0  0  0  0  0  0  0  0  0
    5.1350   -4.3891    0.0000 N   0  0  0  0  0  0  0  0  0  0  0  0
   10.3312   -4.3891    0.0000 N   0  0  0  0  0  0  0  0  0  0  0  0
    7.7331   -4.8891    0.0000 N   0  0  0  0  0  0  0  0  0  0  0  0
   12.0632   -3.3891    0.0000 N   0  0  0  0  0  0  0  0  0  0  0  0
   12.0632   -1.3891    0.0000 N   0  0  0  0  0  0  0  0  0  0  0  0
    2.5369   -2.8891    0.0000 N   0  0  0  0  0  0  0  0  0  0  0  0
    4.6490    6.9743    0.0000 N   0  0  0  0  0  0  0  0  0  0  0  0
    5.8965    1.1054    0.0000 C   0  0  0  0  0  0  0  0  0  0  0  0
    4.9184    1.3133    0.0000 C   0  0  0  0  0  0  0  0  0  0  0  0
    4.4184    0.4473    0.0000 C   0  0  0  0  0  0  0  0  0  0  0  0
    5.0875   -0.2959    0.0000 C   0  0  0  0  0  0  0  0  0  0  0  0
    6.6396    1.7745    0.0000 C   0  0  0  0  0  0  0  0  0  0  0  0
    6.8671   -0.3891    0.0000 C   0  0  0  0  0  0  0  0  0  0  0  0
    6.8671   -1.3891    0.0000 C   0  0  0  0  0  0  0  0  0  0  0  0
    7.1749    3.4218    0.0000 C   0  0  0  0  0  0  0  0  0  0  0  0
    8.1259    3.1128    0.0000 C   0  0  0  0  0  0  0  0  0  0  0  0
    7.7331   -1.8891    0.0000 C   0  0  0  0  0  0  0  0  0  0  0  0
    8.8691    3.7819    0.0000 C   0  0  0  0  0  0  0  0  0  0  0  0
    6.9670    4.3999    0.0000 C   0  0  0  0  0  0  0  0  0  0  0  0
    6.0010   -2.8891    0.0000 C   0  0  0  0  0  0  0  0  0  0  0  0
    5.1350   -3.3891    0.0000 C   0  0  0  0  0  0  0  0  0  0  0  0
    9.4651   -5.8891    0.0000 C   0  0  0  0  0  0  0  0  0  0  0  0
    9.4651   -4.8891    0.0000 C   0  0  0  0  0  0  0  0  0  0  0  0
    9.8201    3.4729    0.0000 C   0  0  0  0  0  0  0  0  0  0  0  0
    8.6612    4.7601    0.0000 C   0  0  0  0  0  0  0  0  0  0  0  0
    6.8671   -4.3891    0.0000 C   0  0  0  0  0  0  0  0  0  0  0  0
    8.5991   -6.3891    0.0000 C   0  0  0  0  0  0  0  0  0  0  0  0
    4.2690   -2.8891    0.0000 C   0  0  0  0  0  0  0  0  0  0  0  0
    8.5991   -4.3891    0.0000 C   0  0  0  0  0  0  0  0  0  0  0  0
    6.0010   -4.8891    0.0000 C   0  0  0  0  0  0  0  0  0  0  0  0
   10.3312   -6.3891    0.0000 C   0  0  0  0  0  0  0  0  0  0  0  0
    6.2243   -3.6231    0.0000 C   0  0  0  0  0  0  0  0  0  0  0  0
   12.0632   -4.3891    0.0000 C   0  0  0  0  0  0  0  0  0  0  0  0
   11.1972   -4.8891    0.0000 C   0  0  0  0  0  0  0  0  0  0  0  0
    5.8080    5.6871    0.0000 C   0  0  0  0  0  0  0  0  0  0  0  0
    8.5991   -7.3891    0.0000 C   0  0  0  0  0  0  0  0  0  0  0  0
   12.9292   -4.8891    0.0000 C   0  0  0  0  0  0  0  0  0  0  0  0
   10.3312   -1.3891    0.0000 C   0  0  0  0  0  0  0  0  0  0  0  0
   11.1972   -1.8891    0.0000 C   0  0  0  0  0  0  0  0  0  0  0  0
    3.4030   -3.3891    0.0000 C   0  0  0  0  0  0  0  0  0  0  0  0
    5.1436   -4.0163    0.0000 C   0  0  0  0  0  0  0  0  0  0  0  0
   11.1972   -2.8891    0.0000 C   0  0  0  0  0  0  0  0  0  0  0  0
   13.7953   -4.3891    0.0000 C   0  0  0  0  0  0  0  0  0  0  0  0
    4.8570    5.9961    0.0000 C   0  0  0  0  0  0  0  0  0  0  0  0
   13.7953   -3.3891    0.0000 C   0  0  0  0  0  0  0  0  0  0  0  0
   14.6613   -4.8891    0.0000 C   0  0  0  0  0  0  0  0  0  0  0  0
   14.6613   -2.8891    0.0000 C   0  0  0  0  0  0  0  0  0  0  0  0
   15.5273   -4.3891    0.0000 C   0  0  0  0  0  0  0  0  0  0  0  0
   15.5273   -3.3891    0.0000 C   0  0  0  0  0  0  0  0  0  0  0  0
  1  2  1  0
  1 35  1  0
  2 56  1  0
  3 30  2  0
  4 31  2  0
  5 37  2  0
  6 38  2  0
  7 47  2  0
 50  8  1  0
  9 48  2  0
 10 52  2  0
 11 58  2  0
 12 60  2  0
 13 62  2  0
 14 67  1  0
 15 26  1  0
 15 29  1  0
 15 31  1  0
 16 30  1  0
 33 16  1  0
 17 32  1  0
 17 38  1  0
 18 37  1  0
 18 53  1  0
 19 39  1  0
 19 48  1  0
 41 20  1  1
 20 52  1  0
 44 21  1  6
 21 47  1  0
 22 51  1  0
 22 60  1  0
 57 23  1  6
 24 58  1  0
 25 62  1  0
 26 27  1  0
 26 30  1  1
 27 28  1  0
 28 29  1  0
 32 31  1  6
 32 35  1  0
 33 34  1  6
 33 37  1  0
 34 36  1  0
 36 42  1  0
 36 43  1  0
 38 39  1  0
 39 46  1  1
 40 41  1  0
 40 45  1  0
 40 49  1  1
 41 47  1  0
 44 48  1  0
 44 50  1  0
 45 54  1  0
 46 58  1  0
 50 59  1  1
 51 52  1  0
 51 55  1  1
 53 62  1  0
 55 61  1  0
 56 57  1  0
 57 60  1  0
 61 63  2  0
 61 64  1  0
 63 65  1  0
 64 66  2  0
 65 67  2  0
 66 67  1  0
M  END
