 
 
 
  8  7  0  0  0  0  0  0  0  0999 V2000
   10.7100  -11.5500    0.0000 N   0  0  0  0  0  0  0  0  0  0  0  0
   11.9224  -12.2500    0.0000 C   0  0  0  0  0  0  0  0  0  0  0  0
   13.1179  -11.5596    0.0000 C   0  0  0  0  0  0  0  0  0  0  0  0
   14.3053  -12.2451    0.0000 C   0  0  0  0  0  0  0  0  0  0  0  0
   15.4965  -11.5571    0.0000 S   0  0  0  0  0  0  0  0  0  0  0  0
   16.6860  -12.2438    0.0000 O   0  0  0  0  0  0  0  0  0  0  0  0
   14.5066  -10.5671    0.0000 O   0  0  0  0  0  0  0  0  0  0  0  0
   16.4865  -10.5671    0.0000 O   0  0  0  0  0  0  0  0  0  0  0  0
  1  2  1  0     0  0
  2  3  1  0     0  0
  3  4  1  0     0  0
  4  5  1  0     0  0
  5  6  1  0     0  0
  5  7  2  0     0  0
  5  8  2  0     0  0
M  END
