 
     RDKit          2D

174183  0  0  1  0  0  0  0  0999 V2000
   27.3948  -21.8777    0.0000 C   0  0  0  0  0  0  0  0  0  0  0  0
   25.9882  -21.9398    0.0000 N   0  0  0  0  0  0  0  0  0  0  0  0
   25.2806  -23.0796    0.0000 C   0  0  0  0  0  0  0  0  0  0  0  0
   23.8085  -23.0732    0.0000 C   0  0  0  0  0  0  0  0  0  0  0  0
   28.1016  -20.6672    0.0000 O   0  0  0  0  0  0  0  0  0  0  0  0
   18.1375  -16.7656    0.0000 C   0  0  0  0  0  0  0  0  0  0  0  0
   19.5392  -16.7656    0.0000 C   0  0  0  0  0  0  0  0  0  0  0  0
   20.2400  -15.5519    0.0000 C   0  0  0  0  0  0  0  0  0  0  0  0
   21.6417  -17.9796    0.0000 C   0  0  0  0  0  0  0  0  0  0  0  0
   22.3425  -16.7656    0.0000 C   0  0  0  0  0  0  0  0  0  0  0  0
   22.3284  -15.4970    0.0000 N   0  0  0  0  0  0  0  0  0  0  0  0
   23.5351  -14.6439    0.0000 C   0  0  0  0  0  0  0  0  0  0  0  0
   23.5210  -13.2422    0.0000 C   0  0  0  0  0  0  0  0  0  0  0  0
   24.7559  -15.3325    0.0000 C   0  0  0  0  0  0  0  0  0  0  0  0
   24.7701  -16.7342    0.0000 O   0  0  0  0  0  0  0  0  0  0  0  0
   28.0674  -15.8246    0.0000 C   0  0  0  0  0  0  0  0  0  0  0  0
   29.4691  -15.8186    0.0000 N   0  0  0  0  0  0  0  0  0  0  0  0
   30.1649  -14.6017    0.0000 C   0  0  0  0  0  0  0  0  0  0  0  0
   31.5666  -14.5958    0.0000 C   0  0  0  0  0  0  0  0  0  0  0  0
   32.2624  -13.3790    0.0000 O   0  0  0  0  0  0  0  0  0  0  0  0
   32.2725  -15.8068    0.0000 N   0  0  0  0  0  0  0  0  0  0  0  0
   33.6741  -15.8008    0.0000 C   0  0  0  0  0  0  0  0  0  0  0  0
   34.3801  -17.0118    0.0000 C   0  0  0  0  0  0  0  0  0  0  0  0
   35.7818  -17.0060    0.0000 O   0  0  0  0  0  0  0  0  0  0  0  0
   33.6846  -18.2286    0.0000 N   0  0  0  0  0  0  0  0  0  0  0  0
   34.3905  -19.4395    0.0000 C   0  0  0  0  0  0  0  0  0  0  0  0
   35.7858  -19.4346    0.0000 C   0  0  0  0  0  0  0  0  0  0  0  0
   36.4909  -20.6460    0.0000 C   0  0  0  0  0  0  0  0  0  0  0  0
   37.8926  -20.6409    0.0000 O   0  0  0  0  0  0  0  0  0  0  0  0
   35.7945  -21.8623    0.0000 N   0  0  0  0  0  0  0  0  0  0  0  0
   33.6944  -20.6562    0.0000 C   0  0  0  0  0  0  0  0  0  0  0  0
   32.2927  -20.6616    0.0000 N   0  0  0  0  0  0  0  0  0  0  0  0
   34.3999  -21.8672    0.0000 O   0  0  0  0  0  0  0  0  0  0  0  0
   31.5966  -21.8781    0.0000 C   0  0  0  0  0  0  0  0  0  0  0  0
   30.1950  -21.8837    0.0000 C   0  0  0  0  0  0  0  0  0  0  0  0
   32.3021  -23.0894    0.0000 C   0  0  0  0  0  0  0  0  0  0  0  0
   33.7038  -23.0838    0.0000 C   0  0  0  0  0  0  0  0  0  0  0  0
   34.4093  -24.2951    0.0000 C   0  0  0  0  0  0  0  0  0  0  0  0
   35.8110  -24.2895    0.0000 O   0  0  0  0  0  0  0  0  0  0  0  0
   29.4988  -23.1002    0.0000 N   0  0  0  0  0  0  0  0  0  0  0  0
   28.0908  -23.0944    0.0000 C   0  0  0  0  0  0  0  0  0  0  0  0
   22.3002  -12.5538    0.0000 C   0  0  0  0  0  0  0  0  0  0  0  0
   29.4590  -13.3909    0.0000 C   0  0  0  0  0  0  0  0  0  0  0  0
   29.4500  -11.9871    0.0000 C   0  0  0  0  0  0  0  0  0  0  0  0
   34.3699  -14.5839    0.0000 C   0  0  0  0  0  0  0  0  0  0  0  0
   34.3558  -13.1765    0.0000 C   0  0  0  0  0  0  0  0  0  0  0  0
   29.4894  -20.6725    0.0000 O   0  0  0  0  0  0  0  0  0  0  0  0
   25.2680  -25.5075    0.0000 C   0  0  0  0  0  0  0  0  0  0  0  0
   22.9623  -24.1439    0.0000 O   0  0  0  0  0  0  0  0  0  0  0  0
   22.3425  -19.1867    0.0000 N   0  0  0  0  0  0  0  0  0  0  0  0
   21.6486  -20.3972    0.0000 C   0  0  0  0  0  0  0  0  0  0  0  0
   22.3495  -21.6078    0.0000 C   0  0  0  0  0  0  0  0  0  0  0  0
   23.8212  -21.6061    0.0000 N   0  0  0  0  0  0  0  0  0  0  0  0
   22.3563  -11.1523    0.0000 C   0  0  0  0  0  0  0  0  0  0  0  0
   21.0654  -10.4637    0.0000 C   0  0  0  0  0  0  0  0  0  0  0  0
   19.8585  -11.1766    0.0000 C   0  0  0  0  0  0  0  0  0  0  0  0
   19.8727  -12.5782    0.0000 C   0  0  0  0  0  0  0  0  0  0  0  0
   21.0936  -13.2669    0.0000 C   0  0  0  0  0  0  0  0  0  0  0  0
   30.6610  -11.2776    0.0000 C   0  0  0  0  0  0  0  0  0  0  0  0
   30.6520   -9.8740    0.0000 C   0  0  0  0  0  0  0  0  0  0  0  0
   29.4319   -9.1801    0.0000 C   0  0  0  0  0  0  0  0  0  0  0  0
   28.2210   -9.8896    0.0000 C   0  0  0  0  0  0  0  0  0  0  0  0
   28.2299  -11.2933    0.0000 C   0  0  0  0  0  0  0  0  0  0  0  0
   35.5677  -12.4605    0.0000 C   0  0  0  0  0  0  0  0  0  0  0  0
   35.5536  -11.0532    0.0000 C   0  0  0  0  0  0  0  0  0  0  0  0
   34.3277  -10.3616    0.0000 C   0  0  0  0  0  0  0  0  0  0  0  0
   33.1157  -11.0776    0.0000 C   0  0  0  0  0  0  0  0  0  0  0  0
   33.1298  -12.4850    0.0000 C   0  0  0  0  0  0  0  0  0  0  0  0
   27.1045  -24.7964    0.0000 C   0  0  0  0  0  0  0  0  0  0  0  0
   28.7845  -24.3050    0.0000 C   0  0  0  0  0  0  0  0  0  0  0  0
   28.7775  -25.7067    0.0000 C   0  0  0  0  0  0  0  0  0  0  0  0
   27.5600  -26.4013    0.0000 C   0  0  0  0  0  0  0  0  0  0  0  0
   27.5529  -27.8030    0.0000 C   0  0  0  0  0  0  0  0  0  0  0  0
   28.7632  -28.5100    0.0000 C   0  0  0  0  0  0  0  0  0  0  0  0
   29.9808  -27.8152    0.0000 C   0  0  0  0  0  0  0  0  0  0  0  0
   29.9879  -26.4136    0.0000 C   0  0  0  0  0  0  0  0  0  0  0  0
   21.6501  -22.8226    0.0000 C   0  0  0  0  0  0  0  0  0  0  0  0
   20.2470  -22.8113    0.0000 C   0  0  0  0  0  0  0  0  0  0  0  0
   19.5365  -24.0196    0.0000 C   0  0  0  0  0  0  0  0  0  0  0  0
   18.1304  -24.0149    0.0000 N   0  0  0  0  0  0  0  0  0  0  0  0
   25.9679  -14.6146    0.0000 N   0  0  0  0  0  0  0  0  0  0  0  0
   27.3615  -14.6137    0.0000 C   0  0  0  0  0  0  0  0  0  0  0  0
   27.7914  -13.2877    0.0000 C   0  0  0  0  0  0  0  0  0  0  0  0
   26.6633  -12.4695    0.0000 C   0  0  0  0  0  0  0  0  0  0  0  0
   25.5363  -13.2893    0.0000 C   0  0  0  0  0  0  0  0  0  0  0  0
   20.2400  -17.9692    0.0000 C   0  0  0  0  0  0  0  0  0  0  0  0
   25.9742  -24.2838    0.0000 C   0  0  0  0  0  0  0  0  0  0  0  0
   23.6982  -17.1218    0.0000 O   0  0  0  0  0  0  0  0  0  0  0  0
   20.2470  -20.3903    0.0000 O   0  0  0  0  0  0  0  0  0  0  0  0
   28.7563  -29.9117    0.0000 O   0  0  0  0  0  0  0  0  0  0  0  0
   33.7132  -25.5116    0.0000 N   0  0  0  0  0  0  0  0  0  0  0  0
   27.3720  -17.0413    0.0000 O   0  0  0  0  0  0  0  0  0  0  0  0
   30.8854  -18.1927    0.0000 C   0  0  0  0  0  0  0  0  0  0  0  0
   31.8707  -19.1769    0.0000 C   0  0  0  0  0  0  0  0  0  0  0  0
   33.1112  -18.5440    0.0000 C   0  0  0  0  0  0  0  0  0  0  0  0
   32.8923  -17.1688    0.0000 C   0  0  0  0  0  0  0  0  0  0  0  0
   31.5168  -16.9516    0.0000 N   0  0  0  0  0  0  0  0  0  0  0  0
   16.3537  -14.0513    0.0000 C   0  0  0  0  0  0  0  0  0  0  0  0
   15.3616  -13.0602    0.0000 C   0  0  0  0  0  0  0  0  0  0  0  0
   14.1123  -13.6977    0.0000 C   0  0  0  0  0  0  0  0  0  0  0  0
   14.3326  -15.0827    0.0000 C   0  0  0  0  0  0  0  0  0  0  0  0
   15.7179  -15.3013    0.0000 N   0  0  0  0  0  0  0  0  0  0  0  0
   16.3643  -16.8170    0.0000 C   0  0  0  0  0  0  0  0  0  0  0  0
   17.5736  -16.1127    0.0000 O   0  0  0  0  0  0  0  0  0  0  0  0
   18.7745  -14.0440    0.0000 N   0  0  0  0  0  0  0  0  0  0  0  0
   19.9832  -13.3372    0.0000 C   0  0  0  0  0  0  0  0  0  0  0  0
   19.9760  -11.5877    0.0000 C   0  0  0  0  0  0  0  0  0  0  0  0
   18.7605  -10.8881    0.0000 C   0  0  0  0  0  0  0  0  0  0  0  0
   21.1847  -10.8809    0.0000 C   0  0  0  0  0  0  0  0  0  0  0  0
   21.1918  -14.0369    0.0000 C   0  0  0  0  0  0  0  0  0  0  0  0
   21.2059  -15.1961    0.0000 O   0  0  0  0  0  0  0  0  0  0  0  0
   22.4004  -13.3301    0.0000 N   0  0  0  0  0  0  0  0  0  0  0  0
   23.6090  -14.0298    0.0000 C   0  0  0  0  0  0  0  0  0  0  0  0
   23.6019  -12.6304    0.0000 C   0  0  0  0  0  0  0  0  0  0  0  0
   22.3863  -11.9307    0.0000 C   0  0  0  0  0  0  0  0  0  0  0  0
   24.8176  -13.3232    0.0000 C   0  0  0  0  0  0  0  0  0  0  0  0
   24.8105  -11.9237    0.0000 O   0  0  0  0  0  0  0  0  0  0  0  0
   26.0263  -14.0228    0.0000 N   0  0  0  0  0  0  0  0  0  0  0  0
   27.2348  -13.3160    0.0000 C   0  0  0  0  0  0  0  0  0  0  0  0
   28.4434  -14.0157    0.0000 C   0  0  0  0  0  0  0  0  0  0  0  0
   28.4546  -15.4152    0.0000 O   0  0  0  0  0  0  0  0  0  0  0  0
   29.6520  -13.3089    0.0000 N   0  0  0  0  0  0  0  0  0  0  0  0
   17.5586  -13.3512    0.0000 C   0  0  0  0  0  0  0  0  0  0  0  0
   17.5508  -11.9518    0.0000 O   0  0  0  0  0  0  0  0  0  0  0  0
   22.3845  -10.5312    0.0000 C   0  0  0  0  0  0  0  0  0  0  0  0
   23.5956   -9.8300    0.0000 N   0  0  0  0  0  0  0  0  0  0  0  0
   30.8679  -14.0018    0.0000 C   0  0  0  0  0  0  0  0  0  0  0  0
   32.0759  -13.2953    0.0000 C   0  0  0  0  0  0  0  0  0  0  0  0
   27.2317  -11.9166    0.0000 C   0  0  0  0  0  0  0  0  0  0  0  0
   28.4421  -10.8643    0.0000 C   0  0  0  0  0  0  0  0  0  0  0  0
   28.4390   -9.4649    0.0000 C   0  0  0  0  0  0  0  0  0  0  0  0
   29.6556  -11.5613    0.0000 C   0  0  0  0  0  0  0  0  0  0  0  0
   32.0681  -11.8959    0.0000 C   0  0  0  0  0  0  0  0  0  0  0  0
   33.2322  -11.1953    0.0000 C   0  0  0  0  0  0  0  0  0  0  0  0
   33.2711   -9.7959    0.0000 C   0  0  0  0  0  0  0  0  0  0  0  0
   32.0552   -9.1029    0.0000 C   0  0  0  0  0  0  0  0  0  0  0  0
   30.8472   -9.8095    0.0000 C   0  0  0  0  0  0  0  0  0  0  0  0
   30.8550  -11.2089    0.0000 C   0  0  0  0  0  0  0  0  0  0  0  0
   28.4629  -18.1962    0.0000 N   0  0  0  0  0  0  0  0  0  0  0  0
   27.2531  -18.9009    0.0000 C   0  0  0  0  0  0  0  0  0  0  0  0
   27.2577  -20.6503    0.0000 C   0  0  0  0  0  0  0  0  0  0  0  0
   28.4719  -21.3523    0.0000 C   0  0  0  0  0  0  0  0  0  0  0  0
   26.0478  -21.3550    0.0000 C   0  0  0  0  0  0  0  0  0  0  0  0
   26.0458  -18.1989    0.0000 C   0  0  0  0  0  0  0  0  0  0  0  0
   26.0805  -17.0397    0.0000 O   0  0  0  0  0  0  0  0  0  0  0  0
   24.8360  -18.9036    0.0000 N   0  0  0  0  0  0  0  0  0  0  0  0
   23.6285  -18.2017    0.0000 C   0  0  0  0  0  0  0  0  0  0  0  0
   23.6331  -19.6012    0.0000 C   0  0  0  0  0  0  0  0  0  0  0  0
   24.8475  -20.3030    0.0000 C   0  0  0  0  0  0  0  0  0  0  0  0
   22.4187  -18.9062    0.0000 C   0  0  0  0  0  0  0  0  0  0  0  0
   22.4233  -20.3056    0.0000 O   0  0  0  0  0  0  0  0  0  0  0  0
   21.2113  -18.2042    0.0000 N   0  0  0  0  0  0  0  0  0  0  0  0
   20.0015  -18.9089    0.0000 C   0  0  0  0  0  0  0  0  0  0  0  0
   18.7941  -18.2069    0.0000 C   0  0  0  0  0  0  0  0  0  0  0  0
   18.7854  -16.8075    0.0000 O   0  0  0  0  0  0  0  0  0  0  0  0
   17.5843  -18.9116    0.0000 N   0  0  0  0  0  0  0  0  0  0  0  0
   29.6777  -18.8914    0.0000 C   0  0  0  0  0  0  0  0  0  0  0  0
   29.6829  -20.2908    0.0000 O   0  0  0  0  0  0  0  0  0  0  0  0
   24.8467  -21.7025    0.0000 C   0  0  0  0  0  0  0  0  0  0  0  0
   23.6343  -22.4015    0.0000 N   0  0  0  0  0  0  0  0  0  0  0  0
   16.3695  -18.2164    0.0000 C   0  0  0  0  0  0  0  0  0  0  0  0
   15.1136  -18.9208    0.0000 C   0  0  0  0  0  0  0  0  0  0  0  0
   20.0020  -20.7983    0.0000 C   0  0  0  0  0  0  0  0  0  0  0  0
   18.7903  -21.4986    0.0000 C   0  0  0  0  0  0  0  0  0  0  0  0
   18.7908  -22.8980    0.0000 C   0  0  0  0  0  0  0  0  0  0  0  0
   17.5780  -20.7991    0.0000 C   0  0  0  0  0  0  0  0  0  0  0  0
   15.1191  -20.3202    0.0000 C   0  0  0  0  0  0  0  0  0  0  0  0
   13.9069  -21.0187    0.0000 C   0  0  0  0  0  0  0  0  0  0  0  0
   13.9122  -22.4180    0.0000 C   0  0  0  0  0  0  0  0  0  0  0  0
   15.1267  -23.1132    0.0000 C   0  0  0  0  0  0  0  0  0  0  0  0
   16.3359  -22.4088    0.0000 C   0  0  0  0  0  0  0  0  0  0  0  0
   16.3773  -21.0094    0.0000 C   0  0  0  0  0  0  0  0  0  0  0  0
   30.8758  -15.4013    0.0000 C   0  0  0  0  0  0  0  0  0  0  0  0
   29.6676  -16.1077    0.0000 O   0  0  0  0  0  0  0  0  0  0  0  0
 35 47  2  0
  1 41  1  0
 23 24  2  0
 87 48  1  0
 87 69  1  0
 12 13  1  6
  4 49  2  0
 23 25  1  0
  9 50  1  0
  7 86  1  0
 50 51  1  0
 25 26  1  0
 51 52  1  0
 12 14  1  0
 52 53  1  0
 53  4  1  0
 26 27  1  1
  3  4  1  0
 27 28  1  0
 14 15  2  0
 28 29  2  0
 42 54  2  0
 54 55  1  0
 55 56  2  0
 56 57  1  0
 57 58  2  0
 58 42  1  0
 14 81  1  0
 28 30  1  0
  7  8  1  0
 26 31  1  0
 82 16  1  0
 44 59  2  0
 59 60  1  0
 60 61  2  0
 61 62  1  0
 62 63  2  0
 63 44  1  0
 31 32  1  0
 31 33  2  0
 16 17  1  0
 32 34  1  0
 46 64  2  0
 64 65  1  0
 65 66  2  0
 66 67  1  0
 67 68  2  0
 68 46  1  0
  1  5  2  0
 34 35  1  0
 41 70  1  1
 17 18  1  0
 70 71  1  0
 34 36  1  1
  9 10  1  0
 36 37  1  0
 18 19  1  0
 37 38  1  0
 71 72  2  0
 72 73  1  0
 73 74  2  0
 74 75  1  0
 75 76  2  0
 76 71  1  0
  2  3  1  0
 52 77  1  1
 38 39  2  0
 77 78  1  0
 19 20  2  0
 78 79  1  0
 35 40  1  0
 79 80  1  0
 10 11  1  0
 40 41  1  0
 19 21  1  0
 13 42  1  0
  1  2  1  0
 81 82  1  0
 82 83  1  1
 83 84  1  0
 84 85  1  0
 85 81  1  0
 18 43  1  1
  9 86  1  1
 21 22  1  0
  3 87  1  1
 43 44  1  0
 10 88  2  0
 11 12  1  0
 51 89  2  0
 22 45  1  6
 74 90  1  0
 22 23  1  0
 38 91  1  0
 45 46  1  0
  6  7  1  0
 16 92  2  0
120122  1  0
105106  1  0
133134  2  0
134135  1  0
135136  2  0
136137  1  0
137138  2  0
138133  1  0
106107  1  1
107108  1  0
107109  1  0
106110  1  0
110111  2  0
110112  1  0
112113  1  0
113114  1  6
114115  1  0
113116  1  0
116117  2  0
116118  1  0
118119  1  0
100101  1  0
105123  1  0
101102  1  0
123124  2  0
102 98  1  0
153154  1  0
154155  2  0
154156  1  0
139140  1  0
140141  1  1
141142  1  0
141143  1  0
140144  1  0
144145  2  0
144146  1  0
146147  1  0
147148  1  6
148149  1  0
147150  1  0
150151  2  0
150152  1  0
152153  1  0
115125  1  0
139157  1  0
 97 93  1  0
157158  2  0
125126  1  0
149159  1  0
159160  1  0
122127  1  0
156161  1  0
103104  2  0
161162  1  6
127128  1  6
153163  1  1
 93 94  1  1
163164  1  0
119129  1  1
164165  1  0
 94 95  1  0
164166  1  0
129130  1  0
162167  1  0
 95 96  1  0
130131  1  0
 96 97  1  0
130132  1  0
 98 99  1  1
167168  2  0
168169  1  0
169170  2  0
170171  1  0
171172  2  0
172167  1  0
128133  1  0
 99100  1  0
173174  2  0
103161  1  0
127173  1  0
123 98  1  0
103102  1  0
157 93  1  0
173 97  1  0
119120  1  0
120121  2  0
M  END
