 
     RDKit          2D

 98105  0  0  1  0  0  0  0  0999 V2000
   26.4082  -21.6064    0.0000 C   0  0  0  0  0  0  0  0  0  0  0  0
   27.7998  -21.6121    0.0000 N   0  0  0  0  0  0  0  0  0  0  0  0
   26.0396  -22.9509    0.0000 C   0  0  0  0  0  0  0  0  0  0  0  0
   25.1983  -20.9169    0.0000 C   0  0  0  0  0  0  0  0  0  0  0  0
   29.0039  -20.8351    0.0000 C   0  0  0  0  0  0  0  0  0  0  0  0
   28.2972  -22.8468    0.0000 C   0  0  0  0  0  0  0  0  0  0  0  0
   27.2088  -23.7233    0.0000 C   0  0  0  0  0  0  0  0  0  0  0  0
   23.9884  -21.6064    0.0000 O   0  0  0  0  0  0  0  0  0  0  0  0
   25.1925  -19.5139    0.0000 O   0  0  0  0  0  0  0  0  0  0  0  0
   30.2081  -21.5421    0.0000 C   0  0  0  0  0  0  0  0  0  0  0  0
   28.9980  -19.4379    0.0000 O   0  0  0  0  0  0  0  0  0  0  0  0
   22.7899  -20.9169    0.0000 C   0  0  0  0  0  0  0  0  0  0  0  0
   31.3713  -20.7824    0.0000 N   0  0  0  0  0  0  0  0  0  0  0  0
   30.5649  -22.8937    0.0000 C   0  0  0  0  0  0  0  0  0  0  0  0
   22.7899  -19.5199    0.0000 C   0  0  0  0  0  0  0  0  0  0  0  0
   21.5728  -21.6004    0.0000 C   0  0  0  0  0  0  0  0  0  0  0  0
   32.4539  -21.6590    0.0000 C   0  0  0  0  0  0  0  0  0  0  0  0
   31.9566  -22.8868    0.0000 O   0  0  0  0  0  0  0  0  0  0  0  0
   23.9884  -18.8234    0.0000 C   0  0  0  0  0  0  0  0  0  0  0  0
   21.7834  -18.5263    0.0000 C   0  0  0  0  0  0  0  0  0  0  0  0
   21.5669  -23.0036    0.0000 C   0  0  0  0  0  0  0  0  0  0  0  0
   20.3570  -20.9052    0.0000 C   0  0  0  0  0  0  0  0  0  0  0  0
   33.9330  -21.0983    0.0000 C   0  0  0  0  0  0  0  0  0  0  0  0
   23.9884  -17.4322    0.0000 C   0  0  0  0  0  0  0  0  0  0  0  0
   34.2829  -19.7479    0.0000 C   0  0  0  0  0  0  0  0  0  0  0  0
   25.1983  -16.7369    0.0000 C   0  0  0  0  0  0  0  0  0  0  0  0
   33.3010  -18.7532    0.0000 C   0  0  0  0  0  0  0  0  0  0  0  0
   35.6334  -19.3734    0.0000 O   0  0  0  0  0  0  0  0  0  0  0  0
   26.4082  -17.4204    0.0000 N   0  0  0  0  0  0  0  0  0  0  0  0
   25.1925  -15.3337    0.0000 O   0  0  0  0  0  0  0  0  0  0  0  0
   33.6638  -17.4028    0.0000 C   0  0  0  0  0  0  0  0  0  0  0  0
   27.6184  -16.7310    0.0000 C   0  0  0  0  0  0  0  0  0  0  0  0
   32.4539  -16.7135    0.0000 C   0  0  0  0  0  0  0  0  0  0  0  0
   34.9557  -16.8715    0.0000 O   0  0  0  0  0  0  0  0  0  0  0  0
   28.8283  -17.4145    0.0000 C   0  0  0  0  0  0  0  0  0  0  0  0
   31.2496  -17.4087    0.0000 C   0  0  0  0  0  0  0  0  0  0  0  0
   30.0324  -16.7252    0.0000 C   0  0  0  0  0  0  0  0  0  0  0  0
   31.2437  -18.8060    0.0000 C   0  0  0  0  0  0  0  0  0  0  0  0
   23.8061  -18.9241    0.0000 N   0  0  0  0  0  0  0  0  0  0  0  0
   23.8272  -20.3067    0.0000 C   0  0  0  0  0  0  0  0  0  0  0  0
   25.0087  -18.2149    0.0000 C   0  0  0  0  0  0  0  0  0  0  0  0
   22.6282  -18.2433    0.0000 C   0  0  0  0  0  0  0  0  0  0  0  0
   25.0224  -20.9801    0.0000 C   0  0  0  0  0  0  0  0  0  0  0  0
   22.6419  -20.9968    0.0000 C   0  0  0  0  0  0  0  0  0  0  0  0
   24.9991  -16.8440    0.0000 C   0  0  0  0  0  0  0  0  0  0  0  0
   26.3416  -18.5670    0.0000 O   0  0  0  0  0  0  0  0  0  0  0  0
   21.4370  -18.9407    0.0000 C   0  0  0  0  0  0  0  0  0  0  0  0
   26.2136  -20.2899    0.0000 N   0  0  0  0  0  0  0  0  0  0  0  0
   25.0206  -22.3628    0.0000 O   0  0  0  0  0  0  0  0  0  0  0  0
   21.4352  -20.3234    0.0000 C   0  0  0  0  0  0  0  0  0  0  0  0
   23.8040  -16.1761    0.0000 C   0  0  0  0  0  0  0  0  0  0  0  0
   25.6668  -15.6489    0.0000 N   0  0  0  0  0  0  0  0  0  0  0  0
   27.4087  -20.9576    0.0000 C   0  0  0  0  0  0  0  0  0  0  0  0
   20.2438  -21.0080    0.0000 O   0  0  0  0  0  0  0  0  0  0  0  0
   23.7944  -14.7995    0.0000 C   0  0  0  0  0  0  0  0  0  0  0  0
   27.0436  -15.6393    0.0000 C   0  0  0  0  0  0  0  0  0  0  0  0
   25.7214  -14.2723    0.0000 C   0  0  0  0  0  0  0  0  0  0  0  0
   27.4241  -22.3402    0.0000 C   0  0  0  0  0  0  0  0  0  0  0  0
   28.5870  -20.2544    0.0000 C   0  0  0  0  0  0  0  0  0  0  0  0
   24.9797  -14.0906    0.0000 C   0  0  0  0  0  0  0  0  0  0  0  0
   22.5877  -14.1247    0.0000 C   0  0  0  0  0  0  0  0  0  0  0  0
   27.7184  -14.4442    0.0000 C   0  0  0  0  0  0  0  0  0  0  0  0
   27.7351  -16.8247    0.0000 O   0  0  0  0  0  0  0  0  0  0  0  0
   26.2388  -23.0364    0.0000 C   0  0  0  0  0  0  0  0  0  0  0  0
   28.6181  -23.0136    0.0000 C   0  0  0  0  0  0  0  0  0  0  0  0
   29.7821  -20.9350    0.0000 O   0  0  0  0  0  0  0  0  0  0  0  0
   28.5717  -18.8846    0.0000 O   0  0  0  0  0  0  0  0  0  0  0  0
   24.9584  -12.7138    0.0000 C   0  0  0  0  0  0  0  0  0  0  0  0
   22.5721  -12.7422    0.0000 C   0  0  0  0  0  0  0  0  0  0  0  0
   29.0952  -14.4344    0.0000 N   0  0  0  0  0  0  0  0  0  0  0  0
   27.2826  -13.1404    0.0000 C   0  0  0  0  0  0  0  0  0  0  0  0
   26.2484  -24.4130    0.0000 C   0  0  0  0  0  0  0  0  0  0  0  0
   28.6335  -24.3905    0.0000 C   0  0  0  0  0  0  0  0  0  0  0  0
   30.9733  -20.2318    0.0000 C   0  0  0  0  0  0  0  0  0  0  0  0
   23.7575  -12.0404    0.0000 C   0  0  0  0  0  0  0  0  0  0  0  0
   29.7853  -15.6141    0.0000 C   0  0  0  0  0  0  0  0  0  0  0  0
   29.5115  -13.1247    0.0000 C   0  0  0  0  0  0  0  0  0  0  0  0
   28.3855  -12.3282    0.0000 C   0  0  0  0  0  0  0  0  0  0  0  0
   27.4494  -25.0995    0.0000 C   0  0  0  0  0  0  0  0  0  0  0  0
   32.1684  -20.9125    0.0000 C   0  0  0  0  0  0  0  0  0  0  0  0
   30.9713  -19.0477    0.0000 C   0  0  0  0  0  0  0  0  0  0  0  0
   31.1564  -15.6045    0.0000 C   0  0  0  0  0  0  0  0  0  0  0  0
   29.1002  -16.8093    0.0000 O   0  0  0  0  0  0  0  0  0  0  0  0
   31.5135  -18.1283    0.0000 C   0  0  0  0  0  0  0  0  0  0  0  0
   32.1723  -22.2950    0.0000 N   0  0  0  0  0  0  0  0  0  0  0  0
   31.8595  -16.7899    0.0000 N   0  0  0  0  0  0  0  0  0  0  0  0
   32.5389  -15.5948    0.0000 C   0  0  0  0  0  0  0  0  0  0  0  0
   30.1749  -17.7764    0.0000 O   0  0  0  0  0  0  0  0  0  0  0  0
   33.3673  -22.9686    0.0000 C   0  0  0  0  0  0  0  0  0  0  0  0
   33.2137  -14.3938    0.0000 C   0  0  0  0  0  0  0  0  0  0  0  0
   33.3770  -24.3395    0.0000 C   0  0  0  0  0  0  0  0  0  0  0  0
   34.5644  -22.2724    0.0000 O   0  0  0  0  0  0  0  0  0  0  0  0
   34.5837  -25.0202    0.0000 C   0  0  0  0  0  0  0  0  0  0  0  0
   32.1917  -25.0486    0.0000 N   0  0  0  0  0  0  0  0  0  0  0  0
   34.6052  -26.3968    0.0000 C   0  0  0  0  0  0  0  0  0  0  0  0
   35.7692  -24.3111    0.0000 O   0  0  0  0  0  0  0  0  0  0  0  0
   32.2071  -26.4254    0.0000 C   0  0  0  0  0  0  0  0  0  0  0  0
   33.4138  -27.0988    0.0000 C   0  0  0  0  0  0  0  0  0  0  0  0
  1  2  1  0
  1  3  2  0
  1  4  1  0
  2  5  1  0
  2  6  1  0
  3  7  1  0
  4  8  1  0
  4  9  2  0
  5 10  1  0
  5 11  2  0
  8 12  1  0
 10 13  1  0
 10 14  2  0
 12 15  1  0
 12 16  1  6
 13 17  2  0
 14 18  1  0
 15 19  1  0
 15 20  1  6
 16 21  1  0
 16 22  1  0
 17 23  1  0
 19 24  2  0
 23 25  1  0
 24 26  1  0
 25 27  1  0
 25 28  2  0
 26 29  1  0
 26 30  2  0
 27 31  1  0
 29 32  1  0
 31 33  1  0
 31 34  1  1
 32 35  1  0
 33 36  2  0
 35 37  2  0
 36 38  1  0
  6  7  1  0
 17 18  1  0
 36 37  1  0
 39 40  1  0
 39 41  1  0
 39 42  1  0
 40 43  1  0
 40 44  1  0
 41 45  1  0
 41 46  2  0
 42 47  1  0
 43 48  1  0
 43 49  2  0
 44 50  1  0
 45 51  1  0
 45 52  1  0
 48 53  1  0
 50 54  2  0
 51 55  1  0
 52 56  1  0
 52 57  1  0
 53 58  1  0
 53 59  1  0
 55 60  2  0
 55 61  1  0
 56 62  1  0
 56 63  2  0
 58 64  2  0
 58 65  1  0
 59 66  1  0
 59 67  2  0
 60 68  1  0
 61 69  2  0
 62 70  1  0
 62 71  1  0
 64 72  1  0
 65 73  2  0
 66 74  1  0
 68 75  2  0
 70 76  1  0
 70 77  1  0
 71 78  1  0
 72 79  2  0
 74 80  1  0
 74 81  1  0
 76 82  1  0
 76 83  2  0
 80 84  1  0
 80 85  1  0
 82 86  1  0
 82 87  1  0
 84 88  2  0
 85 89  1  0
 87 90  1  0
 89 91  1  0
 89 92  2  0
 91 93  2  0
 91 94  1  0
 93 95  1  0
 93 96  1  0
 94 97  2  0
 95 98  2  0
 47 50  1  0
 69 75  1  0
 73 79  1  0
 77 78  1  0
 84 86  1  0
 97 98  1  0
M  END
