 
     RDKit          2D

 35 35  0  0  0  0  0  0  0  0999 V2000
   22.3760  -18.2217    0.0000 C   0  0  0  0  0  0  0  0  0  0  0  0
   21.2472  -17.3849    0.0000 O   0  0  0  0  0  0  0  0  0  0  0  0
   21.9301  -19.5480    0.0000 C   0  0  0  0  0  0  0  0  0  0  0  0
   20.1024  -18.2004    0.0000 C   0  0  0  0  0  0  0  0  0  0  0  0
   20.5236  -19.5348    0.0000 C   0  0  0  0  0  0  0  0  0  0  0  0
   23.7960  -17.4047    0.0000 N   0  0  0  0  0  0  0  0  0  0  0  0
   24.9907  -18.1227    0.0000 C   0  0  0  0  0  0  0  0  0  0  0  0
   23.8098  -16.0038    0.0000 C   0  0  0  0  0  0  0  0  0  0  0  0
   26.2164  -17.4363    0.0000 N   0  0  0  0  0  0  0  0  0  0  0  0
   24.9714  -19.5247    0.0000 O   0  0  0  0  0  0  0  0  0  0  0  0
   25.0353  -15.3174    0.0000 C   0  0  0  0  0  0  0  0  0  0  0  0
   26.2357  -16.0341    0.0000 C   0  0  0  0  0  0  0  0  0  0  0  0
   27.4626  -15.3536    0.0000 O   0  0  0  0  0  0  0  0  0  0  0  0
   25.0542  -13.9477    0.0000 F   0  0  0  0  0  0  0  0  0  0  0  0
   31.3307  -14.8911    0.0000 C   0  0  0  0  0  0  0  0  0  0  0  0
   30.1141  -15.5955    0.0000 C   0  0  0  0  0  0  0  0  0  0  0  0
   32.5418  -15.5955    0.0000 C   0  0  0  0  0  0  0  0  0  0  0  0
   31.3893  -13.4879    0.0000 O   0  0  0  0  0  0  0  0  0  0  0  0
   30.1141  -16.9930    0.0000 C   0  0  0  0  0  0  0  0  0  0  0  0
   28.8972  -14.8911    0.0000 Cl  0  0  0  0  0  0  0  0  0  0  0  0
   32.5418  -16.9930    0.0000 C   0  0  0  0  0  0  0  0  0  0  0  0
   31.3307  -17.6916    0.0000 N   0  0  0  0  0  0  0  0  0  0  0  0
   33.7411  -17.6916    0.0000 O   0  0  0  0  0  0  0  0  0  0  0  0
   21.6985  -20.2981    0.0000 C   0  0  0  0  0  0  0  0  0  0  0  0
   21.6985  -21.6979    0.0000 N   0  0  0  0  0  0  0  0  0  0  0  0
   22.9108  -22.3978    0.0000 C   0  0  0  0  0  0  0  0  0  0  0  0
   24.1231  -21.6979    0.0000 N   0  0  0  0  0  0  0  0  0  0  0  0
   24.1231  -20.2981    0.0000 C   0  0  0  0  0  0  0  0  0  0  0  0
   22.9108  -19.5982    0.0000 N   0  0  0  0  0  0  0  0  0  0  0  0
   22.9108  -23.7974    0.0000 O   0  0  0  0  0  0  0  0  0  0  0  0
   20.4863  -19.5982    0.0000 O   0  0  0  0  0  0  0  0  0  0  0  0
   25.3541  -19.5872    0.0000 C   0  0  0  0  0  0  0  0  0  0  0  0
   26.5591  -20.2828    0.0000 O   0  0  0  0  0  0  0  0  0  0  0  0
   25.3538  -18.1985    0.0000 O   0  0  0  0  0  0  0  0  0  0  0  0
   26.7379  -16.1686    0.0000 K   0  0  0  0  0 15  0  0  0  0  0  0
  1  2  1  0
  1  3  1  0
  2  4  1  0
  3  5  1  0
  4  5  1  0
  6  7  1  0
  6  8  1  0
  7  9  1  0
  7 10  2  0
  8 11  2  0
  9 12  1  0
 12 13  2  0
 11 12  1  0
 11 14  1  0
  1  6  1  0
 15 16  1  0
 15 17  2  0
 15 18  1  0
 16 19  2  0
 16 20  1  0
 17 21  1  0
 19 22  1  0
 21 23  2  0
 21 22  1  0
 24 25  1  0
 25 26  1  0
 26 27  1  0
 27 28  2  0
 28 29  1  0
 24 29  1  0
 26 30  2  0
 24 31  2  0
 28 32  1  0
 32 33  2  0
 32 34  1  0
M  CHG  2  34  -1  35   1
M  END
