 
     RDKit          2D

130133  0  0  1  0  0  0  0  0999 V2000
   25.1186  -20.0956    0.0000 C   0  0  0  0  0  0  0  0  0  0  0  0
   26.3371  -19.3960    0.0000 C   0  0  0  0  0  0  0  0  0  0  0  0
   23.9118  -19.3960    0.0000 C   0  0  0  0  0  0  0  0  0  0  0  0
   25.1186  -21.5064    0.0000 C   0  0  0  0  0  0  0  0  0  0  0  0
   26.3371  -17.9968    0.0000 C   0  0  0  0  0  0  0  0  0  0  0  0
   27.5497  -20.0956    0.0000 O   0  0  0  0  0  0  0  0  0  0  0  0
   23.9118  -17.9968    0.0000 C   0  0  0  0  0  0  0  0  0  0  0  0
   26.3255  -22.1944    0.0000 C   0  0  0  0  0  0  0  0  0  0  0  0
   23.9001  -22.1886    0.0000 C   0  0  0  0  0  0  0  0  0  0  0  0
   25.1186  -17.2912    0.0000 C   0  0  0  0  0  0  0  0  0  0  0  0
   25.1186  -15.8921    0.0000 C   0  0  0  0  0  0  0  0  0  0  0  0
   22.8336  -16.1744    0.0000 C   0  0  0  0  0  0  0  0  0  0  0  0
   24.0446  -15.4700    0.0000 C   0  0  0  0  0  0  0  0  0  0  0  0
   21.6168  -15.4700    0.0000 C   0  0  0  0  0  0  0  0  0  0  0  0
   22.8395  -17.5718    0.0000 C   0  0  0  0  0  0  0  0  0  0  0  0
   24.0446  -14.0726    0.0000 C   0  0  0  0  0  0  0  0  0  0  0  0
   25.2498  -16.1744    0.0000 O   0  0  0  0  0  0  0  0  0  0  0  0
   21.6168  -14.0726    0.0000 C   0  0  0  0  0  0  0  0  0  0  0  0
   21.6227  -18.2704    0.0000 C   0  0  0  0  0  0  0  0  0  0  0  0
   24.0505  -18.2704    0.0000 C   0  0  0  0  0  0  0  0  0  0  0  0
   22.8336  -13.3740    0.0000 C   0  0  0  0  0  0  0  0  0  0  0  0
   26.4609  -15.4643    0.0000 C   0  0  0  0  0  0  0  0  0  0  0  0
   22.8395  -11.9766    0.0000 C   0  0  0  0  0  0  0  0  0  0  0  0
   27.6719  -16.1628    0.0000 C   0  0  0  0  0  0  0  0  0  0  0  0
   26.4550  -14.0610    0.0000 O   0  0  0  0  0  0  0  0  0  0  0  0
   16.9400  -18.4100    0.0000 C   0  0  0  0  0  0  0  0  0  0  0  0
   16.9400  -19.8100    0.0000 C   0  0  0  0  0  0  0  0  0  0  0  0
   18.1524  -20.5100    0.0000 C   0  0  0  0  0  0  0  0  0  0  0  0
   19.3649  -19.8100    0.0000 C   0  0  0  0  0  0  0  0  0  0  0  0
   19.3649  -18.4100    0.0000 C   0  0  0  0  0  0  0  0  0  0  0  0
   18.1524  -17.7100    0.0000 C   0  0  0  0  0  0  0  0  0  0  0  0
   18.1524  -16.3102    0.0000 C   0  0  0  0  0  0  0  0  0  0  0  0
   18.1524  -21.9098    0.0000 C   0  0  0  0  0  0  0  0  0  0  0  0
   20.5960  -20.5210    0.0000 O   0  0  0  0  0  0  0  0  0  0  0  0
   16.9232  -22.6196    0.0000 C   0  0  0  0  0  0  0  0  0  0  0  0
   19.3480  -22.6002    0.0000 C   0  0  0  0  0  0  0  0  0  0  0  0
   31.1060  -16.7708    0.0000 C   0  0  0  0  0  0  0  0  0  0  0  0
   30.5316  -15.0659    0.0000 O   0  0  0  0  0  0  0  0  0  0  0  0
   29.8777  -17.3333    0.0000 C   0  0  0  0  0  0  0  0  0  0  0  0
   32.4779  -17.3563    0.0000 C   0  0  0  0  0  0  0  0  0  0  0  0
   30.7500  -18.0967    0.0000 C   0  0  0  0  0  0  0  0  0  0  0  0
   31.3425  -14.0786    0.0000 C   0  0  0  0  0  0  0  0  0  0  0  0
   30.1244  -16.0820    0.0000 C   0  0  0  0  0  0  0  0  0  0  0  0
   32.6559  -16.1164    0.0000 C   0  0  0  0  0  0  0  0  0  0  0  0
   31.3357  -15.5423    0.0000 C   0  0  0  0  0  0  0  0  0  0  0  0
   30.3725  -13.0857    0.0000 C   0  0  0  0  0  0  0  0  0  0  0  0
   32.3355  -13.0857    0.0000 C   0  0  0  0  0  0  0  0  0  0  0  0
   27.3844  -17.0485    0.0000 C   0  0  0  0  0  0  0  0  0  0  0  0
   27.3844  -18.4749    0.0000 C   0  0  0  0  0  0  0  0  0  0  0  0
   28.3885  -16.0575    0.0000 C   0  0  0  0  0  0  0  0  0  0  0  0
   25.9521  -17.0544    0.0000 C   0  0  0  0  0  0  0  0  0  0  0  0
   25.9521  -18.4808    0.0000 C   0  0  0  0  0  0  0  0  0  0  0  0
   28.3885  -19.4907    0.0000 C   0  0  0  0  0  0  0  0  0  0  0  0
   29.8147  -16.0575    0.0000 C   0  0  0  0  0  0  0  0  0  0  0  0
   24.9317  -16.0458    0.0000 C   0  0  0  0  0  0  0  0  0  0  0  0
   24.5611  -17.4252    0.0000 C   0  0  0  0  0  0  0  0  0  0  0  0
   29.8147  -19.4907    0.0000 C   0  0  0  0  0  0  0  0  0  0  0  0
   27.8489  -20.8055    0.0000 C   0  0  0  0  0  0  0  0  0  0  0  0
   30.8188  -17.0485    0.0000 C   0  0  0  0  0  0  0  0  0  0  0  0
   30.8188  -18.4749    0.0000 C   0  0  0  0  0  0  0  0  0  0  0  0
   29.8030  -18.0643    0.0000 C   0  0  0  0  0  0  0  0  0  0  0  0
   32.1865  -16.6791    0.0000 C   0  0  0  0  0  0  0  0  0  0  0  0
   22.8542  -14.0700    0.0000 C   0  0  0  0  0  0  0  0  0  0  0  0
   22.8542  -15.4711    0.0000 C   0  0  0  0  0  0  0  0  0  0  0  0
   24.0714  -16.1751    0.0000 C   0  0  0  0  0  0  0  0  0  0  0  0
   25.2814  -15.4711    0.0000 C   0  0  0  0  0  0  0  0  0  0  0  0
   25.2814  -14.0700    0.0000 C   0  0  0  0  0  0  0  0  0  0  0  0
   24.0714  -13.3730    0.0000 C   0  0  0  0  0  0  0  0  0  0  0  0
   24.0581  -11.9722    0.0000 C   0  0  0  0  0  0  0  0  0  0  0  0
   24.0581  -17.5760    0.0000 C   0  0  0  0  0  0  0  0  0  0  0  0
   25.2690  -18.2730    0.0000 C   0  0  0  0  0  0  0  0  0  0  0  0
   22.8402  -18.2660    0.0000 C   0  0  0  0  0  0  0  0  0  0  0  0
   26.4898  -16.1660    0.0000 O   0  0  0  0  0  0  0  0  0  0  0  0
   25.2305  -10.1542    0.0000 C   0  0  0  0  0  0  0  0  0  0  0  0
   26.3283   -9.2897    0.0000 C   0  0  0  0  0  0  0  0  0  0  0  0
   27.6951   -9.6014    0.0000 C   0  0  0  0  0  0  0  0  0  0  0  0
   28.2976  -10.8559    0.0000 C   0  0  0  0  0  0  0  0  0  0  0  0
   25.2305  -11.5647    0.0000 C   0  0  0  0  0  0  0  0  0  0  0  0
   27.6960  -12.1244    0.0000 C   0  0  0  0  0  0  0  0  0  0  0  0
   26.3283  -12.4365    0.0000 C   0  0  0  0  0  0  0  0  0  0  0  0
   23.8892   -9.7184    0.0000 C   0  0  0  0  0  0  0  0  0  0  0  0
   23.0601  -10.8594    0.0000 C   0  0  0  0  0  0  0  0  0  0  0  0
   23.8892  -12.0005    0.0000 C   0  0  0  0  0  0  0  0  0  0  0  0
   23.4588  -13.3250    0.0000 C   0  0  0  0  0  0  0  0  0  0  0  0
   26.0141   -7.8960    0.0000 C   0  0  0  0  0  0  0  0  0  0  0  0
   28.5485  -13.1866    0.0000 C   0  0  0  0  0  0  0  0  0  0  0  0
   29.8948  -12.9799    0.0000 C   0  0  0  0  0  0  0  0  0  0  0  0
   28.0331  -14.5129    0.0000 C   0  0  0  0  0  0  0  0  0  0  0  0
   25.2084  -16.1845    0.0000 C   0  0  0  0  0  0  0  0  0  0  0  0
   24.0000  -15.4844    0.0000 C   0  0  0  0  0  0  0  0  0  0  0  0
   26.4298  -15.4844    0.0000 C   0  0  0  0  0  0  0  0  0  0  0  0
   25.2026  -17.5799    0.0000 C   0  0  0  0  0  0  0  0  0  0  0  0
   24.0000  -14.0830    0.0000 C   0  0  0  0  0  0  0  0  0  0  0  0
   22.7913  -16.1787    0.0000 O   0  0  0  0  0  0  0  0  0  0  0  0
   26.4298  -14.0830    0.0000 C   0  0  0  0  0  0  0  0  0  0  0  0
   26.4240  -18.2812    0.0000 C   0  0  0  0  0  0  0  0  0  0  0  0
   23.9941  -18.2753    0.0000 C   0  0  0  0  0  0  0  0  0  0  0  0
   25.2084  -13.3876    0.0000 C   0  0  0  0  0  0  0  0  0  0  0  0
   25.2026  -11.9864    0.0000 C   0  0  0  0  0  0  0  0  0  0  0  0
   24.0059  -16.1583    0.0000 C   0  0  0  0  0  0  0  0  0  0  0  0
   25.2156  -15.4574    0.0000 C   0  0  0  0  0  0  0  0  0  0  0  0
   22.7900  -15.4574    0.0000 C   0  0  0  0  0  0  0  0  0  0  0  0
   24.0116  -17.5554    0.0000 C   0  0  0  0  0  0  0  0  0  0  0  0
   25.2156  -14.0543    0.0000 C   0  0  0  0  0  0  0  0  0  0  0  0
   26.4256  -16.1525    0.0000 O   0  0  0  0  0  0  0  0  0  0  0  0
   22.7900  -14.0543    0.0000 C   0  0  0  0  0  0  0  0  0  0  0  0
   22.7957  -18.2575    0.0000 C   0  0  0  0  0  0  0  0  0  0  0  0
   25.2216  -18.2516    0.0000 C   0  0  0  0  0  0  0  0  0  0  0  0
   24.0059  -13.3581    0.0000 C   0  0  0  0  0  0  0  0  0  0  0  0
   24.0116  -11.9553    0.0000 C   0  0  0  0  0  0  0  0  0  0  0  0
   29.3619  -16.7898    0.0000 C   0  0  0  0  0  0  0  0  0  0  0  0
   29.3619  -18.1897    0.0000 C   0  0  0  0  0  0  0  0  0  0  0  0
   28.1410  -17.4904    0.0000 C   0  0  0  0  0  0  0  0  0  0  0  0
   28.1527  -16.0905    0.0000 C   0  0  0  0  0  0  0  0  0  0  0  0
   28.1527  -18.8903    0.0000 C   0  0  0  0  0  0  0  0  0  0  0  0
   30.7560  -18.1897    0.0000 C   0  0  0  0  0  0  0  0  0  0  0  0
   30.3407  -19.1803    0.0000 C   0  0  0  0  0  0  0  0  0  0  0  0
   28.1410  -14.6964    0.0000 C   0  0  0  0  0  0  0  0  0  0  0  0
   26.9480  -18.1897    0.0000 C   0  0  0  0  0  0  0  0  0  0  0  0
   26.9170  -16.7827    0.0000 C   0  0  0  0  0  0  0  0  0  0  0  0
   32.0998  -18.2186    0.0000 C   0  0  0  0  0  0  0  0  0  0  0  0
   32.0998  -19.6154    0.0000 C   0  0  0  0  0  0  0  0  0  0  0  0
   30.8844  -17.5181    0.0000 C   0  0  0  0  0  0  0  0  0  0  0  0
   33.3093  -17.5181    0.0000 C   0  0  0  0  0  0  0  0  0  0  0  0
   30.8904  -20.3173    0.0000 C   0  0  0  0  0  0  0  0  0  0  0  0
   33.3153  -20.3116    0.0000 C   0  0  0  0  0  0  0  0  0  0  0  0
   30.8844  -16.1157    0.0000 C   0  0  0  0  0  0  0  0  0  0  0  0
   33.3093  -16.1157    0.0000 C   0  0  0  0  0  0  0  0  0  0  0  0
   32.0998  -15.4195    0.0000 C   0  0  0  0  0  0  0  0  0  0  0  0
   32.0998  -14.0170    0.0000 C   0  0  0  0  0  0  0  0  0  0  0  0
  1  2  1  0
  1  3  1  0
  1  4  1  6
  2  5  1  0
  2  6  1  1
  3  7  1  0
  4  8  1  0
  4  9  1  0
  5 10  1  0
 10 11  1  1
  7 10  1  0
 12 13  1  0
 12 14  1  0
 12 15  1  6
 13 16  1  0
 13 17  1  1
 14 18  1  0
 15 19  1  0
 15 20  1  0
 16 21  1  0
 17 22  1  0
 21 23  1  1
 22 24  1  0
 22 25  2  0
 18 21  1  0
 26 27  1  0
 27 28  1  0
 28 29  1  0
 29 30  1  0
 30 31  1  0
 26 31  1  0
 31 32  1  1
 28 33  1  6
 29 34  2  0
 33 35  1  0
 33 36  1  0
 37 38  1  0
 37 39  1  0
 37 40  1  0
 37 41  1  0
 38 42  1  0
 39 43  1  0
 40 44  1  0
 42 45  1  0
 42 46  1  0
 42 47  1  0
 43 45  1  0
 44 45  1  0
 48 49  1  0
 48 50  1  6
 48 51  1  0
 49 52  1  1
 49 53  1  0
 50 54  1  0
 51 55  1  0
 51 56  1  0
 53 57  1  0
 53 58  2  0
 54 59  1  0
 57 60  1  0
 59 61  2  0
 59 62  1  0
 51 52  1  0
 60 61  1  0
 68 63  1  0
 68 69  1  1
 63 64  1  0
 64 65  1  0
 65 66  1  0
 65 70  1  1
 66 67  1  0
 70 71  1  0
 67 68  1  0
 70 72  1  0
 66 73  2  0
 76 77  1  0
 77 79  1  0
 75 76  1  0
 78 80  2  0
 74 75  2  0
 79 80  1  0
 74 81  1  0
 81 82  1  0
 82 83  1  0
 78 83  1  0
 83 84  2  0
 75 85  1  0
 79 86  1  1
 86 87  1  0
 86 88  1  0
 89 90  1  0
 89 91  1  0
 89 92  1  1
 90 93  1  0
 90 94  2  0
 91 95  1  0
 92 96  1  0
 92 97  1  0
 93 98  2  0
 98 99  1  0
 95 98  1  0
100101  1  0
100102  1  0
100103  2  3
101104  1  0
101105  2  0
102106  1  0
103107  1  0
103108  1  0
104109  1  0
109110  1  1
106109  1  0
111112  1  0
111113  1  0
111114  1  0
112115  1  0
112116  1  0
112117  1  0
114120  2  0
114118  1  0
115119  1  0
115113  1  0
120119  1  0
121122  1  0
121123  1  0
121124  1  0
122125  2  0
122126  1  0
123127  1  0
124128  1  0
127129  1  0
129130  1  0
128129  2  0
M  END
