388633-28-1.mol
     RDKit          2D

 67 69  0  0  1  0  0  0  0  0999 V2000
   -0.7145   -0.8903    0.0000 S   0  0  0  0  0  0  0  0  0  0  0  0
   -0.0000   -1.3028    0.0000 S   0  0  0  0  0  0  0  0  0  0  0  0
   -1.5465    1.4649    0.0000 O   0  0  0  0  0  0  0  0  0  0  0  0
   -1.4290    0.3473    0.0000 O   0  0  0  0  0  0  0  0  0  0  0  0
   -1.4480    4.4380    0.0000 O   0  0  0  0  0  0  0  0  0  0  0  0
   -2.1435   -2.5404    0.0000 O   0  0  0  0  0  0  0  0  0  0  0  0
   -0.7145   -2.5404    0.0000 O   0  0  0  0  0  0  0  0  0  0  0  0
   -2.3917   -1.9582    0.0000 O   0  0  0  0  0  0  0  0  0  0  0  0
   -2.8581   -4.6030    0.0000 O   0  0  0  0  0  0  0  0  0  0  0  0
    1.4290   -4.6030    0.0000 O   0  0  0  0  0  0  0  0  0  0  0  0
   -5.0016   -3.3655    0.0000 O   0  0  0  0  0  0  0  0  0  0  0  0
    0.6040   -2.1279    0.0000 O   0  0  0  0  0  0  0  0  0  0  0  0
   -4.4151    4.6508    0.0000 O   0  0  0  0  0  0  0  0  0  0  0  0
    5.7161   -2.1279    0.0000 O   0  0  0  0  0  0  0  0  0  0  0  0
   -2.8581    0.3473    0.0000 N   0  0  0  0  0  0  0  0  0  0  0  0
   -2.5027    2.5269    0.0000 N   0  0  0  0  0  0  0  0  0  0  0  0
   -2.8581   -1.3028    0.0000 N   0  0  0  0  0  0  0  0  0  0  0  0
   -2.8458    4.1409    0.0000 N   0  0  0  0  0  0  0  0  0  0  0  0
   -3.5726   -3.3655    0.0000 N   0  0  0  0  0  0  0  0  0  0  0  0
    0.7145   -3.3655    0.0000 N   0  0  0  0  0  0  0  0  0  0  0  0
   -1.4290   -3.7780    0.0000 N   0  0  0  0  0  0  0  0  0  0  0  0
    2.1435   -2.5404    0.0000 N   0  0  0  0  0  0  0  0  0  0  0  0
    2.1435   -0.8903    0.0000 N   0  0  0  0  0  0  0  0  0  0  0  0
   -5.7161   -2.1279    0.0000 N   0  0  0  0  0  0  0  0  0  0  0  0
   -3.9736    6.0099    0.0000 N   0  0  0  0  0  0  0  0  0  0  0  0
   -2.9443    1.1678    0.0000 C   0  0  0  0  0  0  0  0  0  0  0  0
   -3.7513    1.3393    0.0000 C   0  0  0  0  0  0  0  0  0  0  0  0
   -4.1638    0.6248    0.0000 C   0  0  0  0  0  0  0  0  0  0  0  0
   -3.6118    0.0116    0.0000 C   0  0  0  0  0  0  0  0  0  0  0  0
   -2.3312    1.7198    0.0000 C   0  0  0  0  0  0  0  0  0  0  0  0
   -2.1435   -0.0653    0.0000 C   0  0  0  0  0  0  0  0  0  0  0  0
   -2.1435   -0.8903    0.0000 C   0  0  0  0  0  0  0  0  0  0  0  0
   -1.8896    3.0789    0.0000 C   0  0  0  0  0  0  0  0  0  0  0  0
   -1.1049    2.8240    0.0000 C   0  0  0  0  0  0  0  0  0  0  0  0
   -1.4290   -1.3028    0.0000 C   0  0  0  0  0  0  0  0  0  0  0  0
   -0.4918    3.3760    0.0000 C   0  0  0  0  0  0  0  0  0  0  0  0
   -2.0611    3.8859    0.0000 C   0  0  0  0  0  0  0  0  0  0  0  0
   -2.8581   -2.1279    0.0000 C   0  0  0  0  0  0  0  0  0  0  0  0
   -3.5726   -2.5404    0.0000 C   0  0  0  0  0  0  0  0  0  0  0  0
   -0.0000   -4.6030    0.0000 C   0  0  0  0  0  0  0  0  0  0  0  0
   -0.0000   -3.7780    0.0000 C   0  0  0  0  0  0  0  0  0  0  0  0
    0.2929    3.1211    0.0000 C   0  0  0  0  0  0  0  0  0  0  0  0
   -0.6633    4.1831    0.0000 C   0  0  0  0  0  0  0  0  0  0  0  0
   -2.1435   -3.3655    0.0000 C   0  0  0  0  0  0  0  0  0  0  0  0
   -0.7145   -5.0156    0.0000 C   0  0  0  0  0  0  0  0  0  0  0  0
   -4.2871   -2.1279    0.0000 C   0  0  0  0  0  0  0  0  0  0  0  0
   -0.7145   -3.3655    0.0000 C   0  0  0  0  0  0  0  0  0  0  0  0
    0.7145   -5.0156    0.0000 C   0  0  0  0  0  0  0  0  0  0  0  0
   -2.8581   -3.7780    0.0000 C   0  0  0  0  0  0  0  0  0  0  0  0
   -2.6739   -2.7335    0.0000 C   0  0  0  0  0  0  0  0  0  0  0  0
    2.1435   -3.3655    0.0000 C   0  0  0  0  0  0  0  0  0  0  0  0
    1.4290   -3.7780    0.0000 C   0  0  0  0  0  0  0  0  0  0  0  0
   -3.0173    4.9479    0.0000 C   0  0  0  0  0  0  0  0  0  0  0  0
   -0.7145   -5.8406    0.0000 C   0  0  0  0  0  0  0  0  0  0  0  0
    2.8580   -3.7780    0.0000 C   0  0  0  0  0  0  0  0  0  0  0  0
    0.7145   -0.8903    0.0000 C   0  0  0  0  0  0  0  0  0  0  0  0
    1.4290   -1.3028    0.0000 C   0  0  0  0  0  0  0  0  0  0  0  0
   -5.0016   -2.5404    0.0000 C   0  0  0  0  0  0  0  0  0  0  0  0
   -3.5655   -3.0579    0.0000 C   0  0  0  0  0  0  0  0  0  0  0  0
    1.4290   -2.1279    0.0000 C   0  0  0  0  0  0  0  0  0  0  0  0
    3.5726   -3.3655    0.0000 C   0  0  0  0  0  0  0  0  0  0  0  0
   -3.8019    5.2028    0.0000 C   0  0  0  0  0  0  0  0  0  0  0  0
    4.2871   -3.7780    0.0000 C   0  0  0  0  0  0  0  0  0  0  0  0
    3.5726   -2.5404    0.0000 C   0  0  0  0  0  0  0  0  0  0  0  0
    5.0016   -3.3655    0.0000 C   0  0  0  0  0  0  0  0  0  0  0  0
    4.2871   -2.1279    0.0000 C   0  0  0  0  0  0  0  0  0  0  0  0
    5.0016   -2.5404    0.0000 C   0  0  0  0  0  0  0  0  0  0  0  0
  1  2  1  0
  1 35  1  0
  2 56  1  0
  3 30  2  0
  4 31  2  0
  5 37  2  0
  6 38  2  0
  7 47  2  0
  8 50  1  0
  9 49  2  0
 10 52  2  0
 11 58  2  0
 12 60  2  0
 13 62  2  0
 14 67  1  0
 15 26  1  0
 15 29  1  0
 15 31  1  0
 16 30  1  0
 16 33  1  0
 17 32  1  0
 17 38  1  0
 18 37  1  0
 18 53  1  0
 19 39  1  0
 19 49  1  0
 20 41  1  0
 20 52  1  0
 21 44  1  0
 21 47  1  0
 22 51  1  0
 22 60  1  0
 23 57  1  0
 24 58  1  0
 25 62  1  0
 26 27  1  0
 26 30  1  0
 27 28  1  0
 28 29  1  0
 31 32  1  0
 32 35  1  0
 33 34  1  0
 33 37  1  0
 34 36  1  0
 36 42  1  0
 36 43  1  0
 38 39  1  0
 39 46  1  0
 40 41  1  0
 40 45  1  0
 40 48  1  0
 41 47  1  0
 44 49  1  0
 44 50  1  0
 45 54  1  0
 46 58  1  0
 50 59  1  0
 51 52  1  0
 51 55  1  0
 53 62  1  0
 55 61  1  0
 56 57  1  0
 57 60  1  0
 61 63  2  0
 61 64  1  0
 63 65  1  0
 64 66  2  0
 65 67  2  0
 66 67  1  0
V    1 0
V    2 1
V    3 2
V    4 3
V    5 4
V    6 5
V    7 6
V    8 7
V    9 8
V   10 9
V   11 10
V   12 11
V   13 12
V   14 13
V   15 14
V   16 15
V   17 16
V   18 17
V   19 18
V   20 19
V   21 20
V   22 21
V   23 22
V   24 23
V   25 24
V   26 25
V   27 26
V   28 27
V   29 28
V   30 29
V   31 30
V   32 31
V   33 32
V   34 33
V   35 34
V   36 35
V   37 36
V   38 37
V   39 38
V   40 39
V   41 40
V   42 41
V   43 42
V   44 43
V   45 44
V   46 45
V   47 46
V   48 47
V   49 48
V   50 49
V   51 50
V   52 51
V   53 52
V   54 53
V   55 54
V   56 55
V   57 56
V   58 57
V   59 58
V   60 59
V   61 60
V   62 61
V   63 62
V   64 63
V   65 64
V   66 65
V   67 66
M  END
