 
     RDKit          2D

 83 84  0  1  1  0  0  0  0  0999 V2000
   24.5313  -17.0264    0.0000 C   0  0  0  0  0  0  0  0  0  0  0  0
   24.5313  -18.4300    0.0000 C   0  0  0  0  0  0  0  0  0  0  0  0
   25.9349  -18.4300    0.0000 N   0  0  0  0  0  0  0  0  0  0  0  0
   25.9349  -17.0264    0.0000 C   0  0  0  0  0  0  0  0  0  0  0  0
   27.2683  -18.8510    0.0000 C   0  0  0  0  0  0  0  0  0  0  0  0
   28.1103  -17.7281    0.0000 C   0  0  0  0  0  0  0  0  0  0  0  0
   27.2683  -16.6053    0.0000 S   0  0  0  0  0  0  0  0  0  0  0  0
   29.0929  -18.7107    0.0000 C   0  0  0  0  0  0  0  0  0  0  0  0
   29.0929  -16.7456    0.0000 C   0  0  0  0  0  0  0  0  0  0  0  0
   27.7595  -20.1844    0.0000 C   0  0  0  0  0  0  0  0  0  0  0  0
   29.1630  -20.1844    0.0000 O   0  0  0  0  0  0  0  0  0  0  0  0
   26.9173  -21.3072    0.0000 O   0  0  0  0  0  0  0  0  0  0  0  0
   23.3383  -16.3246    0.0000 N   0  0  0  0  0  0  0  0  0  0  0  0
   22.1452  -17.0264    0.0000 C   0  0  0  0  0  0  0  0  0  0  0  0
   23.3383  -19.1317    0.0000 O   0  0  0  0  0  0  0  0  0  0  0  0
   22.1452  -18.4300    0.0000 O   0  0  0  0  0  0  0  0  0  0  0  0
   20.9268  -16.3295    0.0000 C   0  0  0  0  0  0  0  0  0  0  0  0
   19.7355  -17.0241    0.0000 C   0  0  0  0  0  0  0  0  0  0  0  0
   20.9268  -14.9295    0.0000 N   0  0  0  0  0  0  0  0  0  0  0  0
   18.5230  -16.3241    0.0000 C   0  0  0  0  0  0  0  0  0  0  0  0
   17.3106  -17.0241    0.0000 C   0  0  0  0  0  0  0  0  0  0  0  0
   17.3106  -18.4241    0.0000 C   0  0  0  0  0  0  0  0  0  0  0  0
   18.5230  -19.1241    0.0000 C   0  0  0  0  0  0  0  0  0  0  0  0
   19.7355  -18.4241    0.0000 C   0  0  0  0  0  0  0  0  0  0  0  0
   16.0891  -19.1295    0.0000 O   0  0  0  0  0  0  0  0  0  0  0  0
   34.0923  -18.2711    0.0000 O   0  0  0  0  0  0  0  0  0  0  0  0
   34.0923  -18.2711    0.0000 O   0  0  0  0  0  0  0  0  0  0  0  0
   34.0923  -18.2711    0.0000 O   0  0  0  0  0  0  0  0  0  0  0  0
   25.9451  -14.8660    0.0000 C   0  0  0  0  0  0  0  0  0  0  0  0
   25.9451  -16.2704    0.0000 C   0  0  0  0  0  0  0  0  0  0  0  0
   27.3495  -16.2704    0.0000 N   0  0  0  0  0  0  0  0  0  0  0  0
   27.3495  -14.8660    0.0000 C   0  0  0  0  0  0  0  0  0  0  0  0
   28.6836  -16.6916    0.0000 C   0  0  0  0  0  0  0  0  0  0  0  0
   29.5261  -15.5681    0.0000 C   0  0  0  0  0  0  0  0  0  0  0  0
   28.6836  -14.4446    0.0000 S   0  0  0  0  0  0  0  0  0  0  0  0
   30.5093  -16.5512    0.0000 C   0  0  0  0  0  0  0  0  0  0  0  0
   30.5093  -14.5850    0.0000 C   0  0  0  0  0  0  0  0  0  0  0  0
   29.1751  -18.0257    0.0000 C   0  0  0  0  0  0  0  0  0  0  0  0
   30.5794  -18.0257    0.0000 O   0  0  0  0  0  0  0  0  0  0  0  0
   28.3324  -19.1492    0.0000 O   0  0  0  0  0  0  0  0  0  0  0  0
   24.7514  -14.1638    0.0000 N   0  0  0  0  0  0  0  0  0  0  0  0
   23.5577  -14.8660    0.0000 C   0  0  0  0  0  0  0  0  0  0  0  0
   24.7514  -16.9725    0.0000 O   0  0  0  0  0  0  0  0  0  0  0  0
   23.5577  -16.2704    0.0000 O   0  0  0  0  0  0  0  0  0  0  0  0
   22.3386  -14.1687    0.0000 C   0  0  0  0  0  0  0  0  0  0  0  0
   21.1466  -14.8637    0.0000 C   0  0  0  0  0  0  0  0  0  0  0  0
   22.3386  -12.7679    0.0000 N   0  0  0  0  0  0  0  0  0  0  0  0
   19.9334  -14.1633    0.0000 C   0  0  0  0  0  0  0  0  0  0  0  0
   18.7203  -14.8637    0.0000 C   0  0  0  0  0  0  0  0  0  0  0  0
   18.7203  -16.2645    0.0000 C   0  0  0  0  0  0  0  0  0  0  0  0
   19.9334  -16.9649    0.0000 C   0  0  0  0  0  0  0  0  0  0  0  0
   21.1466  -16.2645    0.0000 C   0  0  0  0  0  0  0  0  0  0  0  0
   17.4981  -16.9703    0.0000 O   0  0  0  0  0  0  0  0  0  0  0  0
   32.2700  -18.1300    0.0000 Na  0  0  0  0  0 15  0  0  0  0  0  0
   21.2100  -16.5200    0.0000 C   0  0  0  0  0  0  0  0  0  0  0  0
   21.2100  -17.9200    0.0000 C   0  0  0  0  0  0  0  0  0  0  0  0
   22.6100  -17.9200    0.0000 N   0  0  0  0  0  0  0  0  0  0  0  0
   22.6100  -16.5200    0.0000 C   0  0  0  0  0  0  0  0  0  0  0  0
   23.9400  -18.3400    0.0000 C   0  0  0  0  0  0  0  0  0  0  0  0
   24.7800  -17.2200    0.0000 C   0  0  0  0  0  0  0  0  0  0  0  0
   23.9400  -16.1000    0.0000 O   0  0  0  0  0  0  0  0  0  0  0  0
   24.4300  -19.6700    0.0000 C   0  0  0  0  0  0  0  0  0  0  0  0
   25.8300  -19.6700    0.0000 O   0  0  0  0  0  0  0  0  0  0  0  0
   23.5900  -20.7900    0.0000 O   0  0  0  0  0  0  0  0  0  0  0  0
   20.0200  -18.6200    0.0000 O   0  0  0  0  0  0  0  0  0  0  0  0
   26.1800  -17.2200    0.0000 C   0  0  0  0  0  0  0  0  0  0  0  0
   26.8800  -15.9600    0.0000 C   0  0  0  0  0  0  0  0  0  0  0  0
   28.2800  -15.9600    0.0000 O   0  0  0  0  0  0  0  0  0  0  0  0
   12.7849  -10.4559    0.0000 C   0  0  0  0  0  0  0  0  0  0  0  0
   12.7849  -11.8603    0.0000 C   0  0  0  0  0  0  0  0  0  0  0  0
   14.1893  -11.8603    0.0000 N   0  0  0  0  0  0  0  0  0  0  0  0
   14.1893  -10.4559    0.0000 C   0  0  0  0  0  0  0  0  0  0  0  0
   15.5234  -12.2815    0.0000 C   0  0  0  0  0  0  0  0  0  0  0  0
   16.3659  -11.1580    0.0000 C   0  0  0  0  0  0  0  0  0  0  0  0
   15.5234  -10.0345    0.0000 O   0  0  0  0  0  0  0  0  0  0  0  0
   16.0149  -13.6156    0.0000 C   0  0  0  0  0  0  0  0  0  0  0  0
   17.4192  -13.6156    0.0000 O   0  0  0  0  0  0  0  0  0  0  0  0
   15.1722  -14.7390    0.0000 O   0  0  0  0  0  0  0  0  0  0  0  0
   11.5912  -12.5624    0.0000 O   0  0  0  0  0  0  0  0  0  0  0  0
   17.7659  -11.1580    0.0000 C   0  0  0  0  0  0  0  0  0  0  0  0
   18.4814   -9.9184    0.0000 C   0  0  0  0  0  0  0  0  0  0  0  0
   19.8798   -9.9183    0.0000 O   0  0  0  0  0  0  0  0  0  0  0  0
   18.9700  -13.6500    0.0000 K   0  0  0  0  0 15  0  0  0  0  0  0
  1  2  1  0
  2  3  1  0
  3  4  1  0
  1  4  1  0
  3  5  1  0
  5  6  1  0
  6  7  1  0
  4  7  1  1
  6  8  1  0
  6  9  1  0
  5 10  1  6
 10 11  1  0
 10 12  2  0
  1 13  1  1
 13 14  1  0
  2 15  2  0
 14 16  2  0
 14 17  1  0
 17 18  1  0
 17 19  1  1
 18 20  2  0
 20 21  1  0
 21 22  2  0
 22 23  1  0
 23 24  2  0
 18 24  1  0
 22 25  1  0
 29 30  1  0
 30 31  1  0
 31 32  1  0
 29 32  1  0
 31 33  1  0
 33 34  1  0
 34 35  1  0
 32 35  1  1
 34 36  1  0
 34 37  1  0
 33 38  1  6
 38 39  1  0
 38 40  2  0
 29 41  1  1
 41 42  1  0
 30 43  2  0
 42 44  2  0
 42 45  1  0
 45 46  1  0
 45 47  1  1
 46 48  2  0
 48 49  1  0
 49 50  2  0
 50 51  1  0
 51 52  2  0
 46 52  1  0
 50 53  1  0
 55 56  1  0
 56 57  1  0
 57 58  1  0
 58 55  1  1
 57 59  1  0
 59 60  1  0
 60 61  1  0
 58 61  1  0
 59 62  1  6
 62 63  1  0
 62 64  2  0
 56 65  2  0
 60 66  2  0
 66 67  1  0
 67 68  1  0
 69 70  1  0
 70 71  1  0
 71 72  1  0
 72 69  1  1
 71 73  1  0
 73 74  1  0
 74 75  1  0
 72 75  1  0
 73 76  1  6
 76 77  1  0
 76 78  2  0
 70 79  2  0
 74 80  2  0
 80 81  1  0
 81 82  1  0
M  CHG  4  39  -1  54   1  77  -1  83   1
M  STY  1   1 MUL
M  SLB  1   1   1
M  SCN  1   1 HT 
M  SAL   1  3  26  27  28
M  SPA   1  1  26
M  SDI   1  4   32.1300  -19.1800   32.1300  -17.3600
M  SDI   1  4   34.5800  -17.3600   34.5800  -19.1800
M  SMT   1 3
M  END
