4369448
     RDKit          2D

 21 20  0  0  1  0  0  0  0  0999 V2000
    8.5991   -1.1900    0.0000 S   0  0  0  0  0  0  0  0  0  0  0  0
    7.7331   -0.6900    0.0000 O   0  0  0  0  0  0  0  0  0  0  0  0
    2.5369    0.3100    0.0000 O   0  0  0  0  0  0  0  0  0  0  0  0
   10.3312    1.8100    0.0000 O   0  0  0  0  0  0  0  0  0  0  0  0
    3.4030    1.8100    0.0000 O   0  0  0  0  0  0  0  0  0  0  0  0
   13.7953    0.8100    0.0000 O   0  0  0  0  0  0  0  0  0  0  0  0
   12.9292   -0.6900    0.0000 O   0  0  0  0  0  0  0  0  0  0  0  0
    8.5991    0.8100    0.0000 N   0  0  0  0  0  0  0  0  0  0  0  0
    4.2690   -0.6900    0.0000 N   0  0  0  0  0  0  0  0  0  0  0  0
   11.1972    0.3100    0.0000 N   0  0  0  0  0  0  0  0  0  0  0  0
    6.0010    0.3100    0.0000 C   0  0  0  0  0  0  0  0  0  0  0  0
    5.1350    0.8100    0.0000 C   0  0  0  0  0  0  0  0  0  0  0  0
    6.8671    0.8100    0.0000 C   0  0  0  0  0  0  0  0  0  0  0  0
    4.2690    0.3100    0.0000 C   0  0  0  0  0  0  0  0  0  0  0  0
    9.4651    0.3100    0.0000 C   0  0  0  0  0  0  0  0  0  0  0  0
    7.7331    0.3100    0.0000 C   0  0  0  0  0  0  0  0  0  0  0  0
    9.4651   -0.6900    0.0000 C   0  0  0  0  0  0  0  0  0  0  0  0
   10.3312    0.8100    0.0000 C   0  0  0  0  0  0  0  0  0  0  0  0
    3.4030    0.8100    0.0000 C   0  0  0  0  0  0  0  0  0  0  0  0
   12.0632    0.8100    0.0000 C   0  0  0  0  0  0  0  0  0  0  0  0
   12.9292    0.3100    0.0000 C   0  0  0  0  0  0  0  0  0  0  0  0
  1 17  1  0
  2 16  2  0
  3 19  1  0
  4 18  2  0
  5 19  2  0
  6 21  1  0
  7 21  2  0
 15  8  1  0
  8 16  1  0
 14  9  1  6
 10 18  1  0
 10 20  1  0
 11 12  1  0
 11 13  1  0
 12 14  1  0
 13 16  1  0
 14 19  1  0
 15 17  1  6
 15 18  1  0
 20 21  1  0
M  END
