125-29-1.mol
     RDKit          2D

 10  9  0  0  0  0  0  0  0  0999 V2000
   -1.3885    0.7145    0.0000 C   0  0  0  0  0  0  0  0  0  0  0  0
   -0.9760   -0.0000    0.0000 C   0  0  0  0  0  0  0  0  0  0  0  0
   -0.1510   -0.0000    0.0000 C   0  0  0  0  0  0  0  0  0  0  0  0
    0.2615   -0.7145    0.0000 C   0  0  0  0  0  0  0  0  0  0  0  0
    1.0865   -0.7145    0.0000 C   0  0  0  0  0  0  0  0  0  0  0  0
    1.4990    0.0000    0.0000 C   0  0  0  0  0  0  0  0  0  0  0  0
    0.7845    0.4125    0.0000 C   0  0  0  0  0  0  0  0  0  0  0  0
    1.9115    0.7145    0.0000 C   0  0  0  0  0  0  0  0  0  0  0  0
    2.2135   -0.4125    0.0000 C   0  0  0  0  0  0  0  0  0  0  0  0
   -2.2135    0.7145    0.0000 O   0  0  0  0  0  0  0  0  0  0  0  0
  1  2  1  0
  2  3  1  0
  3  4  1  0
  4  5  1  0
  5  6  1  0
  6  7  1  0
  6  9  1  0
  6  8  1  0
  1 10  2  0
M  END
