9283
     RDKit          2D

 24 26  0  0  0  0  0  0  0  0999 V2000
    9.5385    3.8784    0.0000 Cl  0  0  0  0  0  0  0  0  0  0  0  0
    3.2867    3.6200    0.0000 N   0  0  0  0  0  0  0  0  0  0  0  0
    4.0957    4.2078    0.0000 N   0  0  0  0  0  0  0  0  0  0  0  0
    2.4777    4.2078    0.0000 N   0  0  0  0  0  0  0  0  0  0  0  0
    3.7867    5.1588    0.0000 N   0  0  0  0  0  0  0  0  0  0  0  0
    3.2867    2.6200    0.0000 C   0  0  0  0  0  0  0  0  0  0  0  0
    5.0468    3.8988    0.0000 C   0  0  0  0  0  0  0  0  0  0  0  0
    2.7867    5.1588    0.0000 C   0  0  0  0  0  0  0  0  0  0  0  0
    2.1989    5.9679    0.0000 C   0  0  0  0  0  0  0  0  0  0  0  0
    2.4207    2.1200    0.0000 C   0  0  0  0  0  0  0  0  0  0  0  0
    4.1527    2.1200    0.0000 C   0  0  0  0  0  0  0  0  0  0  0  0
    5.2547    2.9206    0.0000 C   0  0  0  0  0  0  0  0  0  0  0  0
    5.7899    4.5679    0.0000 C   0  0  0  0  0  0  0  0  0  0  0  0
    2.6056    6.8814    0.0000 C   0  0  0  0  0  0  0  0  0  0  0  0
    1.2044    5.8633    0.0000 C   0  0  0  0  0  0  0  0  0  0  0  0
    2.4207    1.1200    0.0000 C   0  0  0  0  0  0  0  0  0  0  0  0
    4.1527    1.1200    0.0000 C   0  0  0  0  0  0  0  0  0  0  0  0
    6.2057    2.6116    0.0000 C   0  0  0  0  0  0  0  0  0  0  0  0
    6.7410    4.2589    0.0000 C   0  0  0  0  0  0  0  0  0  0  0  0
    3.2867    0.6200    0.0000 C   0  0  0  0  0  0  0  0  0  0  0  0
    6.9489    3.2807    0.0000 C   0  0  0  0  0  0  0  0  0  0  0  0
    2.0179    7.6904    0.0000 C   0  0  0  0  0  0  0  0  0  0  0  0
    0.6166    6.6724    0.0000 C   0  0  0  0  0  0  0  0  0  0  0  0
    1.0233    7.5859    0.0000 C   0  0  0  0  0  0  0  0  0  0  0  0
  2  3  1  0
  2  4  2  0
  2  6  1  0
  3  5  1  0
  3  7  1  0
  4  8  1  0
  5  8  2  0
  6 10  2  0
  6 11  1  0
  7 12  2  0
  7 13  1  0
  8  9  1  0
  9 14  2  0
  9 15  1  0
 10 16  1  0
 11 17  2  0
 12 18  1  0
 13 19  2  0
 14 22  1  0
 15 23  2  0
 16 20  2  0
 17 20  1  0
 18 21  2  0
 19 21  1  0
 22 24  2  0
 23 24  1  0
M  CHG  2   1  -1   2   1
M  END
