 
     RDKit          2D

 24 23  0  0  1  0  0  0  0  0999 V2000
   24.2781  -16.5372    0.0000 C   0  0  0  0  0  0  0  0  0  0  0  0
   24.2781  -17.9377    0.0000 C   0  0  0  0  0  0  0  0  0  0  0  0
   25.4860  -15.8370    0.0000 O   0  0  0  0  0  0  0  0  0  0  0  0
   23.0643  -15.8370    0.0000 C   0  0  0  0  0  0  0  0  0  0  0  0
   25.4860  -18.6379    0.0000 C   0  0  0  0  0  0  0  0  0  0  0  0
   23.0643  -18.6379    0.0000 O   0  0  0  0  0  0  0  0  0  0  0  0
   26.7055  -16.5372    0.0000 C   0  0  0  0  0  0  0  0  0  0  0  0
   22.0023  -16.7474    0.0000 O   0  0  0  0  0  0  0  0  0  0  0  0
   26.7055  -17.9377    0.0000 C   0  0  0  0  0  0  0  0  0  0  0  0
   25.4860  -20.0383    0.0000 O   0  0  0  0  0  0  0  0  0  0  0  0
   27.9134  -15.8370    0.0000 O   0  0  0  0  0  0  0  0  0  0  0  0
   27.9134  -18.6379    0.0000 O   0  0  0  0  0  0  0  0  0  0  0  0
   18.0367  -15.9833    0.0000 O   0  0  0  0  0  0  0  0  0  0  0  0
   19.2491  -15.2833    0.0000 C   0  0  0  0  0  0  0  0  0  0  0  0
   20.4615  -15.9833    0.0000 C   0  0  0  0  0  0  0  0  0  0  0  0
   21.6740  -15.2833    0.0000 C   0  0  0  0  0  0  0  0  0  0  0  0
   22.8865  -15.9833    0.0000 C   0  0  0  0  0  0  0  0  0  0  0  0
   24.0989  -15.2833    0.0000 C   0  0  0  0  0  0  0  0  0  0  0  0
   25.3114  -15.9833    0.0000 C   0  0  0  0  0  0  0  0  0  0  0  0
   26.5238  -15.2833    0.0000 O   0  0  0  0  0  0  0  0  0  0  0  0
   20.4615  -17.3833    0.0000 O   0  0  0  0  0  0  0  0  0  0  0  0
   21.6740  -13.8833    0.0000 O   0  0  0  0  0  0  0  0  0  0  0  0
   22.8865  -17.3833    0.0000 O   0  0  0  0  0  0  0  0  0  0  0  0
   24.0989  -13.8833    0.0000 O   0  0  0  0  0  0  0  0  0  0  0  0
  1  2  1  0
  1  3  1  0
  1  4  1  1
  2  5  1  0
  2  6  1  6
  3  7  1  0
  4  8  1  0
  5  9  1  0
  5 10  1  1
  7 11  1  0
  9 12  1  6
  7  9  1  0
 13 14  1  0
 14 15  1  0
 15 16  1  0
 16 17  1  0
 17 18  1  0
 18 19  1  0
 19 20  1  0
 15 21  1  6
 16 22  1  1
 17 23  1  1
 18 24  2  0
M  END
