 
     RDKit          2D

404431  0  0  0  0  0  0  0  0999 V2000
   31.1060  -16.7708    0.0000 C   0  0  0  0  0  0  0  0  0  0  0  0
   30.5316  -15.0659    0.0000 O   0  0  0  0  0  0  0  0  0  0  0  0
   29.8777  -17.3333    0.0000 C   0  0  0  0  0  0  0  0  0  0  0  0
   32.4779  -17.3563    0.0000 C   0  0  0  0  0  0  0  0  0  0  0  0
   30.7500  -18.0967    0.0000 C   0  0  0  0  0  0  0  0  0  0  0  0
   31.3425  -14.0786    0.0000 C   0  0  0  0  0  0  0  0  0  0  0  0
   30.1244  -16.0820    0.0000 C   0  0  0  0  0  0  0  0  0  0  0  0
   32.6559  -16.1164    0.0000 C   0  0  0  0  0  0  0  0  0  0  0  0
   31.3357  -15.5423    0.0000 C   0  0  0  0  0  0  0  0  0  0  0  0
   30.3725  -13.0857    0.0000 C   0  0  0  0  0  0  0  0  0  0  0  0
   32.3355  -13.0857    0.0000 C   0  0  0  0  0  0  0  0  0  0  0  0
   27.8318  -22.5358    0.0000 C   0  0  0  0  0  0  0  0  0  0  0  0
   26.6147  -21.9334    0.0000 C   0  0  0  0  0  0  0  0  0  0  0  0
   27.4603  -21.1711    0.0000 C   0  0  0  0  0  0  0  0  0  0  0  0
   29.0686  -21.9334    0.0000 C   0  0  0  0  0  0  0  0  0  0  0  0
   26.6147  -20.5176    0.0000 C   0  0  0  0  0  0  0  0  0  0  0  0
   25.6280  -22.9836    0.0000 C   0  0  0  0  0  0  0  0  0  0  0  0
   25.2692  -21.9360    0.0000 C   0  0  0  0  0  0  0  0  0  0  0  0
   27.8447  -19.8129    0.0000 C   0  0  0  0  0  0  0  0  0  0  0  0
   29.0686  -20.5176    0.0000 C   0  0  0  0  0  0  0  0  0  0  0  0
   25.4103  -19.8192    0.0000 C   0  0  0  0  0  0  0  0  0  0  0  0
   29.3619  -16.7898    0.0000 C   0  0  0  0  0  0  0  0  0  0  0  0
   29.3619  -18.1897    0.0000 C   0  0  0  0  0  0  0  0  0  0  0  0
   28.1410  -17.4904    0.0000 C   0  0  0  0  0  0  0  0  0  0  0  0
   28.1527  -16.0905    0.0000 C   0  0  0  0  0  0  0  0  0  0  0  0
   28.1527  -18.8903    0.0000 C   0  0  0  0  0  0  0  0  0  0  0  0
   30.7560  -18.1897    0.0000 C   0  0  0  0  0  0  0  0  0  0  0  0
   30.3407  -19.1803    0.0000 C   0  0  0  0  0  0  0  0  0  0  0  0
   28.1410  -14.6964    0.0000 C   0  0  0  0  0  0  0  0  0  0  0  0
   26.9480  -18.1897    0.0000 C   0  0  0  0  0  0  0  0  0  0  0  0
   26.9170  -16.7827    0.0000 C   0  0  0  0  0  0  0  0  0  0  0  0
   25.1662  -14.9879    0.0000 C   0  0  0  0  0  0  0  0  0  0  0  0
   25.1662  -16.3879    0.0000 C   0  0  0  0  0  0  0  0  0  0  0  0
   23.9451  -15.6885    0.0000 C   0  0  0  0  0  0  0  0  0  0  0  0
   23.9568  -14.2886    0.0000 C   0  0  0  0  0  0  0  0  0  0  0  0
   23.9568  -17.0885    0.0000 C   0  0  0  0  0  0  0  0  0  0  0  0
   26.5601  -15.7579    0.0000 C   0  0  0  0  0  0  0  0  0  0  0  0
   26.4949  -17.4484    0.0000 C   0  0  0  0  0  0  0  0  0  0  0  0
   23.9451  -12.8947    0.0000 C   0  0  0  0  0  0  0  0  0  0  0  0
   22.7522  -16.3879    0.0000 C   0  0  0  0  0  0  0  0  0  0  0  0
   22.7212  -14.9809    0.0000 C   0  0  0  0  0  0  0  0  0  0  0  0
   32.0998  -18.2186    0.0000 C   0  0  0  0  0  0  0  0  0  0  0  0
   32.0998  -19.6154    0.0000 C   0  0  0  0  0  0  0  0  0  0  0  0
   30.8844  -17.5181    0.0000 C   0  0  0  0  0  0  0  0  0  0  0  0
   33.3093  -17.5181    0.0000 C   0  0  0  0  0  0  0  0  0  0  0  0
   30.8904  -20.3173    0.0000 C   0  0  0  0  0  0  0  0  0  0  0  0
   33.3153  -20.3116    0.0000 C   0  0  0  0  0  0  0  0  0  0  0  0
   30.8844  -16.1157    0.0000 C   0  0  0  0  0  0  0  0  0  0  0  0
   33.3093  -16.1157    0.0000 C   0  0  0  0  0  0  0  0  0  0  0  0
   32.0998  -15.4195    0.0000 C   0  0  0  0  0  0  0  0  0  0  0  0
   32.0998  -14.0170    0.0000 C   0  0  0  0  0  0  0  0  0  0  0  0
   28.8400  -17.9940    0.0000 C   0  0  0  0  0  0  0  0  0  0  0  0
   28.8400  -19.3906    0.0000 C   0  0  0  0  0  0  0  0  0  0  0  0
   27.6238  -17.2900    0.0000 C   0  0  0  0  0  0  0  0  0  0  0  0
   30.0503  -17.2900    0.0000 C   0  0  0  0  0  0  0  0  0  0  0  0
   27.6297  -20.0889    0.0000 C   0  0  0  0  0  0  0  0  0  0  0  0
   30.0562  -20.0832    0.0000 C   0  0  0  0  0  0  0  0  0  0  0  0
   27.6238  -15.8877    0.0000 C   0  0  0  0  0  0  0  0  0  0  0  0
   30.0503  -15.8877    0.0000 C   0  0  0  0  0  0  0  0  0  0  0  0
   28.8400  -15.1951    0.0000 C   0  0  0  0  0  0  0  0  0  0  0  0
   28.8400  -13.7927    0.0000 C   0  0  0  0  0  0  0  0  0  0  0  0
   24.7819  -16.2589    0.0000 C   0  0  0  0  0  0  0  0  0  0  0  0
   25.4747  -15.2274    0.0000 C   0  0  0  0  0  0  0  0  0  0  0  0
   23.4959  -16.9446    0.0000 C   0  0  0  0  0  0  0  0  0  0  0  0
   26.2913  -16.5206    0.0000 C   0  0  0  0  0  0  0  0  0  0  0  0
   23.7676  -15.0326    0.0000 C   0  0  0  0  0  0  0  0  0  0  0  0
   25.4747  -17.4154    0.0000 C   0  0  0  0  0  0  0  0  0  0  0  0
   25.0436  -14.3196    0.0000 C   0  0  0  0  0  0  0  0  0  0  0  0
   26.6960  -14.3307    0.0000 C   0  0  0  0  0  0  0  0  0  0  0  0
   24.1815  -18.3627    0.0000 C   0  0  0  0  0  0  0  0  0  0  0  0
   22.5474  -18.1568    0.0000 O   0  0  0  0  0  0  0  0  0  0  0  0
   27.0226  -17.8463    0.0000 C   0  0  0  0  0  0  0  0  0  0  0  0
   25.5509  -14.8116    0.0000 C   0  0  0  0  0  0  0  0  0  0  0  0
   26.2718  -13.7307    0.0000 C   0  0  0  0  0  0  0  0  0  0  0  0
   24.2012  -15.5325    0.0000 C   0  0  0  0  0  0  0  0  0  0  0  0
   27.1236  -15.0804    0.0000 C   0  0  0  0  0  0  0  0  0  0  0  0
   25.1454  -13.8160    0.0000 C   0  0  0  0  0  0  0  0  0  0  0  0
   26.2718  -16.0175    0.0000 C   0  0  0  0  0  0  0  0  0  0  0  0
   25.8195  -12.7807    0.0000 C   0  0  0  0  0  0  0  0  0  0  0  0
   27.0384  -13.2328    0.0000 C   0  0  0  0  0  0  0  0  0  0  0  0
   24.9222  -17.0072    0.0000 C   0  0  0  0  0  0  0  0  0  0  0  0
   23.1485  -16.4306    0.0000 O   0  0  0  0  0  0  0  0  0  0  0  0
   27.8902  -16.4696    0.0000 C   0  0  0  0  0  0  0  0  0  0  0  0
   21.9121  -16.4843    0.0000 C   0  0  0  0  0  0  0  0  0  0  0  0
   21.2833  -17.5466    0.0000 C   0  0  0  0  0  0  0  0  0  0  0  0
   21.3043  -15.4061    0.0000 O   0  0  0  0  0  0  0  0  0  0  0  0
   45.2397  -20.5866    0.0000 C   0  0  0  0  0  0  0  0  0  0  0  0
   45.9328  -19.4776    0.0000 C   0  0  0  0  0  0  0  0  0  0  0  0
   43.9227  -21.2798    0.0000 C   0  0  0  0  0  0  0  0  0  0  0  0
   46.7646  -20.7945    0.0000 C   0  0  0  0  0  0  0  0  0  0  0  0
   44.8237  -19.5469    0.0000 C   0  0  0  0  0  0  0  0  0  0  0  0
   45.9328  -21.7649    0.0000 C   0  0  0  0  0  0  0  0  0  0  0  0
   45.5169  -18.5765    0.0000 C   0  0  0  0  0  0  0  0  0  0  0  0
   46.6952  -18.9923    0.0000 C   0  0  0  0  0  0  0  0  0  0  0  0
   44.6158  -22.7353    0.0000 C   0  0  0  0  0  0  0  0  0  0  0  0
   42.9510  -22.1115    0.0000 O   0  0  0  0  0  0  0  0  0  0  0  0
   47.5270  -22.1808    0.0000 C   0  0  0  0  0  0  0  0  0  0  0  0
   41.8432  -22.1115    0.0000 C   0  0  0  0  0  0  0  0  0  0  0  0
   41.2194  -23.2205    0.0000 C   0  0  0  0  0  0  0  0  0  0  0  0
   41.2194  -21.0718    0.0000 O   0  0  0  0  0  0  0  0  0  0  0  0
   39.8332  -23.2205    0.0000 C   0  0  0  0  0  0  0  0  0  0  0  0
   39.1233  -21.9904    0.0000 C   0  0  0  0  0  0  0  0  0  0  0  0
   39.1303  -24.4379    0.0000 C   0  0  0  0  0  0  0  0  0  0  0  0
   17.9900  -16.4500    0.0000 C   0  0  0  0  0  0  0  0  0  0  0  0
   17.9900  -17.8500    0.0000 C   0  0  0  0  0  0  0  0  0  0  0  0
   19.2024  -18.5500    0.0000 C   0  0  0  0  0  0  0  0  0  0  0  0
   20.4149  -17.8500    0.0000 C   0  0  0  0  0  0  0  0  0  0  0  0
   20.4149  -16.4500    0.0000 C   0  0  0  0  0  0  0  0  0  0  0  0
   19.2024  -15.7500    0.0000 C   0  0  0  0  0  0  0  0  0  0  0  0
   21.6273  -18.5500    0.0000 C   0  0  0  0  0  0  0  0  0  0  0  0
   22.8397  -17.8500    0.0000 C   0  0  0  0  0  0  0  0  0  0  0  0
   22.8397  -16.4500    0.0000 C   0  0  0  0  0  0  0  0  0  0  0  0
   21.6273  -15.7500    0.0000 C   0  0  0  0  0  0  0  0  0  0  0  0
   24.0373  -15.7585    0.0000 C   0  0  0  0  0  0  0  0  0  0  0  0
   20.4149  -15.0500    0.0000 C   0  0  0  0  0  0  0  0  0  0  0  0
   20.4149  -19.2500    0.0000 C   0  0  0  0  0  0  0  0  0  0  0  0
   19.2024  -14.3502    0.0000 O   0  0  0  0  0  0  0  0  0  0  0  0
   25.2255  -16.4446    0.0000 C   0  0  0  0  0  0  0  0  0  0  0  0
   24.0375  -14.3503    0.0000 C   0  0  0  0  0  0  0  0  0  0  0  0
   28.1753  -18.7429    0.0000 C   0  0  0  0  0  0  0  0  0  0  0  0
   28.1855  -20.1406    0.0000 C   0  0  0  0  0  0  0  0  0  0  0  0
   26.9407  -18.0620    0.0000 C   0  0  0  0  0  0  0  0  0  0  0  0
   29.4992  -18.2932    0.0000 C   0  0  0  0  0  0  0  0  0  0  0  0
   29.5168  -20.5520    0.0000 C   0  0  0  0  0  0  0  0  0  0  0  0
   26.9931  -20.8653    0.0000 C   0  0  0  0  0  0  0  0  0  0  0  0
   25.7404  -18.7848    0.0000 C   0  0  0  0  0  0  0  0  0  0  0  0
   26.9164  -16.6523    0.0000 C   0  0  0  0  0  0  0  0  0  0  0  0
   30.3310  -19.4143    0.0000 C   0  0  0  0  0  0  0  0  0  0  0  0
   29.5430  -21.9536    0.0000 C   0  0  0  0  0  0  0  0  0  0  0  0
   25.7696  -20.1915    0.0000 N   0  0  0  0  0  0  0  0  0  0  0  0
   25.7212  -15.9892    0.0000 O   0  0  0  0  0  0  0  0  0  0  0  0
   24.5115  -16.7158    0.0000 C   0  0  0  0  0  0  0  0  0  0  0  0
   28.5718  -16.0454    0.0000 O   0  0  0  0  0  0  0  0  0  0  0  0
   29.8794  -16.6796    0.0000 C   0  0  0  0  0  0  0  0  0  0  0  0
   29.9159  -18.0923    0.0000 O   0  0  0  0  0  0  0  0  0  0  0  0
   31.1867  -15.9934    0.0000 C   0  0  0  0  0  0  0  0  0  0  0  0
   31.1320  -18.8092    0.0000 C   0  0  0  0  0  0  0  0  0  0  0  0
   32.3133  -16.7265    0.0000 C   0  0  0  0  0  0  0  0  0  0  0  0
   31.2013  -14.5716    0.0000 O   0  0  0  0  0  0  0  0  0  0  0  0
   32.3620  -18.1296    0.0000 C   0  0  0  0  0  0  0  0  0  0  0  0
   31.2475  -20.2923    0.0000 C   0  0  0  0  0  0  0  0  0  0  0  0
   33.6207  -16.0341    0.0000 O   0  0  0  0  0  0  0  0  0  0  0  0
   33.5750  -18.8563    0.0000 O   0  0  0  0  0  0  0  0  0  0  0  0
   32.3512  -20.9365    0.0000 O   0  0  0  0  0  0  0  0  0  0  0  0
   27.3547  -22.3738    0.0000 O   0  0  0  0  0  0  0  0  0  0  0  0
   26.1456  -20.2574    0.0000 C   0  0  0  0  0  0  0  0  0  0  0  0
   26.1456  -18.8516    0.0000 C   0  0  0  0  0  0  0  0  0  0  0  0
   27.3581  -20.9699    0.0000 C   0  0  0  0  0  0  0  0  0  0  0  0
   24.8084  -20.6829    0.0000 C   0  0  0  0  0  0  0  0  0  0  0  0
   27.3581  -18.1519    0.0000 C   0  0  0  0  0  0  0  0  0  0  0  0
   24.8084  -18.4261    0.0000 C   0  0  0  0  0  0  0  0  0  0  0  0
   28.5777  -20.2634    0.0000 O   0  0  0  0  0  0  0  0  0  0  0  0
   23.9924  -19.5522    0.0000 C   0  0  0  0  0  0  0  0  0  0  0  0
   23.5890  -21.3954    0.0000 C   0  0  0  0  0  0  0  0  0  0  0  0
   28.5777  -18.8516    0.0000 C   0  0  0  0  0  0  0  0  0  0  0  0
   27.3581  -16.7403    0.0000 C   0  0  0  0  0  0  0  0  0  0  0  0
   22.3766  -20.6829    0.0000 O   0  0  0  0  0  0  0  0  0  0  0  0
   22.5768  -19.5509    0.0000 O   0  0  0  0  0  0  0  0  0  0  0  0
   28.5760  -23.0791    0.0000 C   0  0  0  0  0  0  0  0  0  0  0  0
   29.8042  -22.3665    0.0000 C   0  0  0  0  0  0  0  0  0  0  0  0
   28.5775  -24.4948    0.0000 O   0  0  0  0  0  0  0  0  0  0  0  0
   31.0267  -23.0764    0.0000 C   0  0  0  0  0  0  0  0  0  0  0  0
   32.2547  -22.3638    0.0000 C   0  0  0  0  0  0  0  0  0  0  0  0
   31.0282  -24.4921    0.0000 C   0  0  0  0  0  0  0  0  0  0  0  0
   33.8978  -21.4954    0.0000 C   0  0  0  0  0  0  0  0  0  0  0  0
   35.2375  -21.4954    0.0000 C   0  0  0  0  0  0  0  0  0  0  0  0
   35.9074  -22.6341    0.0000 C   0  0  0  0  0  0  0  0  0  0  0  0
   35.2375  -23.8398    0.0000 C   0  0  0  0  0  0  0  0  0  0  0  0
   33.8978  -23.8398    0.0000 C   0  0  0  0  0  0  0  0  0  0  0  0
   33.2280  -22.6341    0.0000 O   0  0  0  0  0  0  0  0  0  0  0  0
   35.9074  -24.9786    0.0000 O   0  0  0  0  0  0  0  0  0  0  0  0
   37.2471  -22.6341    0.0000 O   0  0  0  0  0  0  0  0  0  0  0  0
   35.9074  -20.3566    0.0000 O   0  0  0  0  0  0  0  0  0  0  0  0
   33.2280  -20.3566    0.0000 C   0  0  0  0  0  0  0  0  0  0  0  0
   31.7543  -19.4858    0.0000 O   0  0  0  0  0  0  0  0  0  0  0  0
   33.2950  -25.1125    0.0000 O   0  0  0  0  0  0  0  0  0  0  0  0
   34.5007  -31.8110    0.0000 O   0  0  0  0  0  0  0  0  0  0  0  0
   33.3620  -32.4808    0.0000 C   0  0  0  0  0  0  0  0  0  0  0  0
   32.2232  -31.8110    0.0000 C   0  0  0  0  0  0  0  0  0  0  0  0
   31.0175  -32.5478    0.0000 C   0  0  0  0  0  0  0  0  0  0  0  0
   33.3620  -33.8205    0.0000 O   0  0  0  0  0  0  0  0  0  0  0  0
   31.0845  -33.8875    0.0000 C   0  0  0  0  0  0  0  0  0  0  0  0
   29.8788  -31.8780    0.0000 C   0  0  0  0  0  0  0  0  0  0  0  0
   33.4290  -27.9259    0.0000 C   0  0  0  0  0  0  0  0  0  0  0  0
   33.4290  -29.2656    0.0000 O   0  0  0  0  0  0  0  0  0  0  0  0
   34.5677  -29.9354    0.0000 C   0  0  0  0  0  0  0  0  0  0  0  0
   35.7734  -29.2656    0.0000 C   0  0  0  0  0  0  0  0  0  0  0  0
   35.7734  -27.9259    0.0000 C   0  0  0  0  0  0  0  0  0  0  0  0
   34.5677  -27.2560    0.0000 C   0  0  0  0  0  0  0  0  0  0  0  0
   38.0509  -29.2656    0.0000 C   0  0  0  0  0  0  0  0  0  0  0  0
   38.0509  -27.9259    0.0000 C   0  0  0  0  0  0  0  0  0  0  0  0
   36.9121  -27.2560    0.0000 C   0  0  0  0  0  0  0  0  0  0  0  0
   39.2566  -27.2560    0.0000 O   0  0  0  0  0  0  0  0  0  0  0  0
   39.2566  -29.9354    0.0000 O   0  0  0  0  0  0  0  0  0  0  0  0
   38.0509  -30.6053    0.0000 C   0  0  0  0  0  0  0  0  0  0  0  0
   34.5677  -25.9163    0.0000 C   0  0  0  0  0  0  0  0  0  0  0  0
   45.2397  -20.5866    0.0000 C   0  0  0  0  0  0  0  0  0  0  0  0
   45.9328  -19.4776    0.0000 C   0  0  0  0  0  0  0  0  0  0  0  0
   43.9227  -21.2798    0.0000 C   0  0  0  0  0  0  0  0  0  0  0  0
   46.7646  -20.7945    0.0000 C   0  0  0  0  0  0  0  0  0  0  0  0
   44.8237  -19.5469    0.0000 C   0  0  0  0  0  0  0  0  0  0  0  0
   45.9328  -21.7649    0.0000 C   0  0  0  0  0  0  0  0  0  0  0  0
   45.5169  -18.5765    0.0000 C   0  0  0  0  0  0  0  0  0  0  0  0
   46.6952  -18.9923    0.0000 C   0  0  0  0  0  0  0  0  0  0  0  0
   44.6158  -22.7353    0.0000 C   0  0  0  0  0  0  0  0  0  0  0  0
   42.9510  -22.1115    0.0000 O   0  0  0  0  0  0  0  0  0  0  0  0
   47.5270  -22.1808    0.0000 C   0  0  0  0  0  0  0  0  0  0  0  0
   41.8432  -22.1115    0.0000 C   0  0  0  0  0  0  0  0  0  0  0  0
   41.2194  -23.2205    0.0000 C   0  0  0  0  0  0  0  0  0  0  0  0
   41.2194  -21.0718    0.0000 O   0  0  0  0  0  0  0  0  0  0  0  0
   39.8332  -23.2205    0.0000 C   0  0  0  0  0  0  0  0  0  0  0  0
   39.1233  -21.9904    0.0000 C   0  0  0  0  0  0  0  0  0  0  0  0
   39.1303  -24.4379    0.0000 C   0  0  0  0  0  0  0  0  0  0  0  0
   25.5509  -14.8116    0.0000 C   0  0  0  0  0  0  0  0  0  0  0  0
   26.2718  -13.7307    0.0000 C   0  0  0  0  0  0  0  0  0  0  0  0
   24.2012  -15.5325    0.0000 C   0  0  0  0  0  0  0  0  0  0  0  0
   27.1236  -15.0804    0.0000 C   0  0  0  0  0  0  0  0  0  0  0  0
   25.1454  -13.8160    0.0000 C   0  0  0  0  0  0  0  0  0  0  0  0
   26.2718  -16.0175    0.0000 C   0  0  0  0  0  0  0  0  0  0  0  0
   25.8195  -12.7807    0.0000 C   0  0  0  0  0  0  0  0  0  0  0  0
   27.0384  -13.2328    0.0000 C   0  0  0  0  0  0  0  0  0  0  0  0
   24.9222  -17.0072    0.0000 C   0  0  0  0  0  0  0  0  0  0  0  0
   23.1485  -16.4306    0.0000 O   0  0  0  0  0  0  0  0  0  0  0  0
   27.8902  -16.4696    0.0000 C   0  0  0  0  0  0  0  0  0  0  0  0
   21.9121  -16.4843    0.0000 C   0  0  0  0  0  0  0  0  0  0  0  0
   21.2833  -17.5466    0.0000 C   0  0  0  0  0  0  0  0  0  0  0  0
   21.3043  -15.4061    0.0000 O   0  0  0  0  0  0  0  0  0  0  0  0
   34.3000  -23.2400    0.0000 C   0  0  0  0  0  0  0  0  0  0  0  0
   34.3000  -24.6400    0.0000 C   0  0  0  0  0  0  0  0  0  0  0  0
   33.1100  -22.5400    0.0000 C   0  0  0  0  0  0  0  0  0  0  0  0
   35.4200  -22.5400    0.0000 C   0  0  0  0  0  0  0  0  0  0  0  0
   33.1100  -25.3400    0.0000 C   0  0  0  0  0  0  0  0  0  0  0  0
   35.4200  -25.3400    0.0000 C   0  0  0  0  0  0  0  0  0  0  0  0
   31.8500  -23.2400    0.0000 C   0  0  0  0  0  0  0  0  0  0  0  0
   33.1100  -21.1400    0.0000 O   0  0  0  0  0  0  0  0  0  0  0  0
   36.6800  -23.2400    0.0000 C   0  0  0  0  0  0  0  0  0  0  0  0
   31.8500  -24.6400    0.0000 C   0  0  0  0  0  0  0  0  0  0  0  0
   36.6800  -24.6400    0.0000 C   0  0  0  0  0  0  0  0  0  0  0  0
   34.3000  -21.7700    0.0000 C   0  0  0  0  0  0  0  0  0  0  0  0
   37.9400  -22.5400    0.0000 C   0  0  0  0  0  0  0  0  0  0  0  0
   34.3000  -25.9000    0.0000 C   0  0  0  0  0  0  0  0  0  0  0  0
   33.1100  -26.5300    0.0000 O   0  0  0  0  0  0  0  0  0  0  0  0
   39.1300  -23.2400    0.0000 C   0  0  0  0  0  0  0  0  0  0  0  0
   37.8700  -21.1400    0.0000 C   0  0  0  0  0  0  0  0  0  0  0  0
   34.6890  -26.9716    0.0000 C   0  0  0  0  0  0  0  0  0  0  0  0
   33.4311  -26.2727    0.0000 O   0  0  0  0  0  0  0  0  0  0  0  0
   34.6890  -28.4391    0.0000 C   0  0  0  0  0  0  0  0  0  0  0  0
   35.8770  -26.2727    0.0000 O   0  0  0  0  0  0  0  0  0  0  0  0
   32.2431  -26.9716    0.0000 C   0  0  0  0  0  0  0  0  0  0  0  0
   33.4311  -29.0681    0.0000 C   0  0  0  0  0  0  0  0  0  0  0  0
   35.8770  -29.0681    0.0000 O   0  0  0  0  0  0  0  0  0  0  0  0
   32.2431  -28.4391    0.0000 C   0  0  0  0  0  0  0  0  0  0  0  0
   31.0550  -26.2727    0.0000 C   0  0  0  0  0  0  0  0  0  0  0  0
   33.4311  -30.5357    0.0000 O   0  0  0  0  0  0  0  0  0  0  0  0
   31.0550  -29.1380    0.0000 O   0  0  0  0  0  0  0  0  0  0  0  0
   29.7971  -26.9716    0.0000 O   0  0  0  0  0  0  0  0  0  0  0  0
   37.0874  -25.5739    0.0000 C   0  0  0  0  0  0  0  0  0  0  0  0
   37.0875  -24.1764    0.0000 C   0  0  0  0  0  0  0  0  0  0  0  0
   38.2812  -23.4871    0.0000 C   0  0  0  0  0  0  0  0  0  0  0  0
   38.2811  -22.0894    0.0000 C   0  0  0  0  0  0  0  0  0  0  0  0
   37.0706  -21.3907    0.0000 C   0  0  0  0  0  0  0  0  0  0  0  0
   35.8769  -22.0799    0.0000 O   0  0  0  0  0  0  0  0  0  0  0  0
   35.8770  -23.4776    0.0000 C   0  0  0  0  0  0  0  0  0  0  0  0
   39.6105  -23.9190    0.0000 C   0  0  0  0  0  0  0  0  0  0  0  0
   40.4319  -22.7882    0.0000 C   0  0  0  0  0  0  0  0  0  0  0  0
   39.6103  -21.6574    0.0000 C   0  0  0  0  0  0  0  0  0  0  0  0
   41.1308  -23.9986    0.0000 O   0  0  0  0  0  0  0  0  0  0  0  0
   39.6103  -20.2598    0.0000 C   0  0  0  0  0  0  0  0  0  0  0  0
   40.7973  -19.5742    0.0000 O   0  0  0  0  0  0  0  0  0  0  0  0
   40.8207  -20.9586    0.0000 O   0  0  0  0  0  0  0  0  0  0  0  0
   37.0706  -19.9930    0.0000 O   0  0  0  0  0  0  0  0  0  0  0  0
   35.8517  -19.2894    0.0000 C   0  0  0  0  0  0  0  0  0  0  0  0
   34.6626  -19.9761    0.0000 C   0  0  0  0  0  0  0  0  0  0  0  0
   33.4750  -19.2905    0.0000 C   0  0  0  0  0  0  0  0  0  0  0  0
   32.2869  -19.9767    0.0000 C   0  0  0  0  0  0  0  0  0  0  0  0
   35.8515  -17.8868    0.0000 O   0  0  0  0  0  0  0  0  0  0  0  0
   33.4746  -17.9201    0.0000 C   0  0  0  0  0  0  0  0  0  0  0  0
   26.8374  -23.8891    0.0000 C   0  0  0  0  0  0  0  0  0  0  0  0
   25.5713  -23.1857    0.0000 O   0  0  0  0  0  0  0  0  0  0  0  0
   26.8374  -25.3664    0.0000 C   0  0  0  0  0  0  0  0  0  0  0  0
   28.0332  -23.1857    0.0000 O   0  0  0  0  0  0  0  0  0  0  0  0
   24.3754  -23.8891    0.0000 C   0  0  0  0  0  0  0  0  0  0  0  0
   25.5713  -25.9995    0.0000 C   0  0  0  0  0  0  0  0  0  0  0  0
   28.0332  -25.9995    0.0000 O   0  0  0  0  0  0  0  0  0  0  0  0
   24.3754  -25.3664    0.0000 C   0  0  0  0  0  0  0  0  0  0  0  0
   23.1796  -23.1857    0.0000 C   0  0  0  0  0  0  0  0  0  0  0  0
   25.5713  -27.4766    0.0000 O   0  0  0  0  0  0  0  0  0  0  0  0
   23.1796  -26.0698    0.0000 O   0  0  0  0  0  0  0  0  0  0  0  0
   21.9135  -23.8891    0.0000 O   0  0  0  0  0  0  0  0  0  0  0  0
   29.2290  -22.4823    0.0000 C   0  0  0  0  0  0  0  0  0  0  0  0
   29.2290  -21.0755    0.0000 C   0  0  0  0  0  0  0  0  0  0  0  0
   30.4248  -20.4424    0.0000 C   0  0  0  0  0  0  0  0  0  0  0  0
   30.4248  -19.0356    0.0000 C   0  0  0  0  0  0  0  0  0  0  0  0
   29.2290  -18.3321    0.0000 C   0  0  0  0  0  0  0  0  0  0  0  0
   28.0332  -18.9653    0.0000 O   0  0  0  0  0  0  0  0  0  0  0  0
   28.0332  -20.3721    0.0000 C   0  0  0  0  0  0  0  0  0  0  0  0
   31.7614  -20.8645    0.0000 C   0  0  0  0  0  0  0  0  0  0  0  0
   32.6054  -19.7390    0.0000 C   0  0  0  0  0  0  0  0  0  0  0  0
   31.7614  -18.5432    0.0000 C   0  0  0  0  0  0  0  0  0  0  0  0
   31.7614  -17.1363    0.0000 C   0  0  0  0  0  0  0  0  0  0  0  0
   32.9571  -16.5033    0.0000 O   0  0  0  0  0  0  0  0  0  0  0  0
   32.9571  -17.8397    0.0000 O   0  0  0  0  0  0  0  0  0  0  0  0
   29.2290  -16.9253    0.0000 O   0  0  0  0  0  0  0  0  0  0  0  0
   27.9629  -16.2219    0.0000 C   0  0  0  0  0  0  0  0  0  0  0  0
   26.7671  -16.8550    0.0000 C   0  0  0  0  0  0  0  0  0  0  0  0
   25.5713  -16.2219    0.0000 C   0  0  0  0  0  0  0  0  0  0  0  0
   24.3754  -16.8550    0.0000 C   0  0  0  0  0  0  0  0  0  0  0  0
   27.9629  -14.8151    0.0000 O   0  0  0  0  0  0  0  0  0  0  0  0
   25.5713  -14.8252    0.0000 C   0  0  0  0  0  0  0  0  0  0  0  0
   34.0199  -19.7595    0.0000 O   0  0  0  0  0  0  0  0  0  0  0  0
   38.0571  -26.2967    0.0000 C   0  0  0  0  0  0  0  0  0  0  0  0
   36.8063  -25.6018    0.0000 O   0  0  0  0  0  0  0  0  0  0  0  0
   38.0571  -27.7559    0.0000 C   0  0  0  0  0  0  0  0  0  0  0  0
   39.2383  -25.6018    0.0000 O   0  0  0  0  0  0  0  0  0  0  0  0
   35.6250  -26.2967    0.0000 C   0  0  0  0  0  0  0  0  0  0  0  0
   36.8063  -28.3813    0.0000 C   0  0  0  0  0  0  0  0  0  0  0  0
   39.2383  -28.3813    0.0000 O   0  0  0  0  0  0  0  0  0  0  0  0
   35.6250  -27.7559    0.0000 C   0  0  0  0  0  0  0  0  0  0  0  0
   34.4438  -25.6018    0.0000 C   0  0  0  0  0  0  0  0  0  0  0  0
   36.8063  -29.8405    0.0000 O   0  0  0  0  0  0  0  0  0  0  0  0
   34.4438  -28.4508    0.0000 O   0  0  0  0  0  0  0  0  0  0  0  0
   33.1235  -26.2967    0.0000 O   0  0  0  0  0  0  0  0  0  0  0  0
   40.4196  -24.8375    0.0000 C   0  0  0  0  0  0  0  0  0  0  0  0
   40.4196  -23.4477    0.0000 C   0  0  0  0  0  0  0  0  0  0  0  0
   41.6009  -22.8224    0.0000 C   0  0  0  0  0  0  0  0  0  0  0  0
   41.6009  -21.4326    0.0000 C   0  0  0  0  0  0  0  0  0  0  0  0
   40.4196  -20.7378    0.0000 C   0  0  0  0  0  0  0  0  0  0  0  0
   39.2383  -21.3631    0.0000 O   0  0  0  0  0  0  0  0  0  0  0  0
   39.2383  -22.7529    0.0000 C   0  0  0  0  0  0  0  0  0  0  0  0
   42.9211  -23.2393    0.0000 C   0  0  0  0  0  0  0  0  0  0  0  0
   43.7549  -22.1275    0.0000 C   0  0  0  0  0  0  0  0  0  0  0  0
   42.9211  -20.9462    0.0000 C   0  0  0  0  0  0  0  0  0  0  0  0
   42.9211  -19.5565    0.0000 C   0  0  0  0  0  0  0  0  0  0  0  0
   44.1024  -18.9311    0.0000 O   0  0  0  0  0  0  0  0  0  0  0  0
   44.1024  -20.2514    0.0000 O   0  0  0  0  0  0  0  0  0  0  0  0
   40.4196  -19.3480    0.0000 O   0  0  0  0  0  0  0  0  0  0  0  0
   39.1688  -18.6532    0.0000 C   0  0  0  0  0  0  0  0  0  0  0  0
   37.9876  -19.2786    0.0000 C   0  0  0  0  0  0  0  0  0  0  0  0
   36.8063  -18.6532    0.0000 C   0  0  0  0  0  0  0  0  0  0  0  0
   35.6250  -19.2786    0.0000 C   0  0  0  0  0  0  0  0  0  0  0  0
   39.1688  -17.2635    0.0000 O   0  0  0  0  0  0  0  0  0  0  0  0
   44.4498  -23.3783    0.0000 O   0  0  0  0  0  0  0  0  0  0  0  0
   31.4336  -27.2000    0.0000 C   0  0  0  0  0  0  0  0  0  0  0  0
   30.2469  -26.5147    0.0000 O   0  0  0  0  0  0  0  0  0  0  0  0
   29.0434  -27.2094    0.0000 C   0  0  0  0  0  0  0  0  0  0  0  0
   29.0432  -28.5992    0.0000 C   0  0  0  0  0  0  0  0  0  0  0  0
   30.2298  -29.2845    0.0000 C   0  0  0  0  0  0  0  0  0  0  0  0
   31.4334  -28.5897    0.0000 C   0  0  0  0  0  0  0  0  0  0  0  0
   30.2296  -30.6741    0.0000 O   0  0  0  0  0  0  0  0  0  0  0  0
   27.8212  -26.5036    0.0000 C   0  0  0  0  0  0  0  0  0  0  0  0
   26.6331  -27.1896    0.0000 O   0  0  0  0  0  0  0  0  0  0  0  0
   27.8294  -29.2999    0.0000 O   0  0  0  0  0  0  0  0  0  0  0  0
   32.6536  -29.2945    0.0000 O   0  0  0  0  0  0  0  0  0  0  0  0
   36.8060  -17.2201    0.0000 C   0  0  0  0  0  0  0  0  0  0  0  0
   30.1664  -23.5564    0.0000 C   0  0  0  0  0  0  0  0  0  0  0  0
   28.9023  -22.8542    0.0000 O   0  0  0  0  0  0  0  0  0  0  0  0
   30.1664  -25.0311    0.0000 C   0  0  0  0  0  0  0  0  0  0  0  0
   31.3603  -22.8542    0.0000 O   0  0  0  0  0  0  0  0  0  0  0  0
   27.7086  -23.5564    0.0000 C   0  0  0  0  0  0  0  0  0  0  0  0
   28.9023  -25.5929    0.0000 C   0  0  0  0  0  0  0  0  0  0  0  0
   31.3603  -25.5929    0.0000 O   0  0  0  0  0  0  0  0  0  0  0  0
   27.7086  -25.0311    0.0000 C   0  0  0  0  0  0  0  0  0  0  0  0
   26.5147  -22.8542    0.0000 C   0  0  0  0  0  0  0  0  0  0  0  0
   28.9023  -27.0675    0.0000 O   0  0  0  0  0  0  0  0  0  0  0  0
   26.5147  -25.6631    0.0000 O   0  0  0  0  0  0  0  0  0  0  0  0
   25.1805  -23.5564    0.0000 O   0  0  0  0  0  0  0  0  0  0  0  0
   32.4837  -22.0817    0.0000 C   0  0  0  0  0  0  0  0  0  0  0  0
   32.4837  -20.6772    0.0000 C   0  0  0  0  0  0  0  0  0  0  0  0
   33.6776  -20.0452    0.0000 C   0  0  0  0  0  0  0  0  0  0  0  0
   33.6776  -18.6408    0.0000 C   0  0  0  0  0  0  0  0  0  0  0  0
   32.4837  -17.9386    0.0000 C   0  0  0  0  0  0  0  0  0  0  0  0
   31.3603  -18.5706    0.0000 O   0  0  0  0  0  0  0  0  0  0  0  0
   31.3603  -19.9750    0.0000 C   0  0  0  0  0  0  0  0  0  0  0  0
   35.0118  -20.4666    0.0000 C   0  0  0  0  0  0  0  0  0  0  0  0
   35.8546  -19.3431    0.0000 C   0  0  0  0  0  0  0  0  0  0  0  0
   35.0118  -18.1492    0.0000 C   0  0  0  0  0  0  0  0  0  0  0  0
   35.0118  -16.7448    0.0000 C   0  0  0  0  0  0  0  0  0  0  0  0
   36.2056  -16.1128    0.0000 O   0  0  0  0  0  0  0  0  0  0  0  0
   32.4837  -16.5340    0.0000 O   0  0  0  0  0  0  0  0  0  0  0  0
   31.2900  -15.8319    0.0000 C   0  0  0  0  0  0  0  0  0  0  0  0
   30.0962  -16.4638    0.0000 C   0  0  0  0  0  0  0  0  0  0  0  0
   28.9023  -15.8319    0.0000 C   0  0  0  0  0  0  0  0  0  0  0  0
   27.7086  -16.4638    0.0000 C   0  0  0  0  0  0  0  0  0  0  0  0
   31.2900  -14.4976    0.0000 O   0  0  0  0  0  0  0  0  0  0  0  0
   23.4952  -24.4694    0.0000 C   0  0  0  0  0  0  0  0  0  0  0  0
   22.3013  -23.7671    0.0000 O   0  0  0  0  0  0  0  0  0  0  0  0
   21.1076  -24.4694    0.0000 C   0  0  0  0  0  0  0  0  0  0  0  0
   21.1076  -25.8739    0.0000 C   0  0  0  0  0  0  0  0  0  0  0  0
   22.3013  -26.5059    0.0000 C   0  0  0  0  0  0  0  0  0  0  0  0
   23.4952  -25.8037    0.0000 C   0  0  0  0  0  0  0  0  0  0  0  0
   22.3013  -27.9103    0.0000 O   0  0  0  0  0  0  0  0  0  0  0  0
   19.8435  -23.7671    0.0000 C   0  0  0  0  0  0  0  0  0  0  0  0
   18.6497  -24.3992    0.0000 O   0  0  0  0  0  0  0  0  0  0  0  0
   19.9137  -26.5760    0.0000 O   0  0  0  0  0  0  0  0  0  0  0  0
   24.6889  -26.5059    0.0000 O   0  0  0  0  0  0  0  0  0  0  0  0
   28.9015  -14.3997    0.0000 C   0  0  0  0  0  0  0  0  0  0  0  0
   37.2393  -19.3628    0.0000 O   0  0  0  0  0  0  0  0  0  0  0  0
   27.8817  -18.0895    0.0000 C   0  0  0  0  0  0  0  0  0  0  0  0
   26.6700  -18.7919    0.0000 C   0  0  0  0  0  0  0  0  0  0  0  0
   29.0933  -18.7919    0.0000 C   0  0  0  0  0  0  0  0  0  0  0  0
   27.8817  -16.6906    0.0000 C   0  0  0  0  0  0  0  0  0  0  0  0
   25.4583  -18.0895    0.0000 C   0  0  0  0  0  0  0  0  0  0  0  0
   24.2467  -18.7919    0.0000 O   0  0  0  0  0  0  0  0  0  0  0  0
   25.4583  -16.6906    0.0000 O   0  0  0  0  0  0  0  0  0  0  0  0
  1  2  1  0
  1  3  1  0
  1  4  1  0
  1  5  1  0
  2  6  1  0
  3  7  1  0
  4  8  1  0
  6  9  1  0
  6 10  1  0
  6 11  1  0
  7  9  1  0
  8  9  1  0
 12 13  1  0
 12 14  1  0
 12 15  1  0
 13 16  1  0
 13 17  1  0
 13 18  1  0
 19 14  1  0
 15 20  1  0
 16 21  2  0
 16 19  1  0
 19 20  1  0
 22 23  1  0
 22 24  1  0
 22 25  1  0
 23 26  1  0
 23 27  1  0
 23 28  1  0
 25 31  2  0
 25 29  1  0
 26 30  1  0
 26 24  1  0
 31 30  1  0
 32 33  1  0
 32 34  1  0
 32 35  1  0
 33 36  1  0
 33 37  1  0
 33 38  1  0
 35 41  1  0
 35 39  2  0
 36 40  1  0
 36 34  1  0
 41 40  1  0
 42 43  1  0
 42 44  1  0
 42 45  1  0
 43 46  2  0
 43 47  1  0
 44 48  1  0
 45 49  1  0
 48 50  1  0
 50 51  1  0
 49 50  2  0
 52 53  1  0
 52 54  2  0
 52 55  1  0
 53 56  1  0
 53 57  1  0
 54 58  1  0
 55 59  2  0
 58 60  2  0
 60 61  1  0
 59 60  1  0
 62 63  1  0
 62 64  1  0
 62 65  1  0
 62 66  1  0
 63 67  1  0
 63 68  1  0
 63 69  1  0
 64 70  1  0
 64 71  1  0
 65 72  1  0
 67 70  1  0
 67 72  1  0
 73 76  1  0
 73 77  1  0
 74 78  1  0
 74 79  1  0
 74 80  1  0
 75 81  1  0
 75 82  1  6
 76 83  1  0
 78 81  1  0
 78 83  1  0
 82 84  1  0
 73 74  1  0
 84 85  1  0
 73 75  1  0
 84 86  2  0
 87 90  1  0
 87 91  1  0
 88 92  1  0
 88 93  1  0
 88 94  1  0
 89 95  1  0
 89 96  1  6
 90 97  1  0
 92 95  1  0
 92 97  1  0
 96 98  1  0
 87 88  1  0
 98 99  1  0
 87 89  1  0
 98100  2  0
 99101  1  0
101102  1  0
101103  1  0
104105  1  0
105106  1  0
106107  1  0
107108  1  0
108109  1  0
104109  1  0
107110  1  0
110111  1  0
111112  1  0
112113  1  0
108113  1  0
112114  1  1
108115  1  6
107116  1  6
109117  2  0
114118  1  0
114119  1  0
120122  2  0
120123  1  0
121124  1  0
121125  2  0
122126  1  0
122127  1  0
123128  1  0
124129  1  6
125130  1  0
124128  1  0
126130  2  0
120121  1  0
127131  1  0
131132  1  0
134135  1  0
134136  1  0
135137  1  0
136138  1  0
136139  1  6
146147  1  0
146148  1  6
146149  1  0
147150  1  0
147151  1  6
148152  1  0
149153  1  0
149154  1  1
150155  2  0
150156  1  0
154157  1  0
156133  1  0
151153  1  0
152155  1  0
148145  1  1
137140  1  0
153158  1  1
137141  1  1
145159  1  0
138142  1  1
159160  1  0
140143  1  6
159161  2  0
138140  1  0
160162  1  0
141144  1  0
162163  1  0
134133  1  1
162164  1  0
165166  1  0
166167  1  0
167168  1  0
168169  1  0
169170  1  0
165170  1  0
168171  1  1
167172  1  6
166173  1  1
165174  1  6
174175  1  0
169176  1  6
177178  1  0
178179  1  0
179180  1  0
178181  2  0
180182  1  0
180183  1  0
184185  1  0
185186  1  0
187186  1  1
187188  1  0
188189  1  0
184189  2  0
187190  1  0
190191  1  0
191192  1  0
188192  1  1
191193  1  6
190194  1  0
190195  1  6
186177  1  6
189196  1  0
196176  1  0
197200  1  0
197201  1  0
198202  1  0
198203  1  0
198204  1  0
199205  1  0
199206  1  6
200207  1  0
202205  1  0
202207  1  0
206208  1  0
197198  1  0
208209  1  0
197199  1  0
208210  2  0
209211  1  0
211212  1  0
211213  1  0
214217  1  0
214218  1  0
215219  1  0
215220  1  0
215221  1  0
216222  1  0
216223  1  6
217224  1  0
219222  1  0
219224  1  0
223225  1  0
214215  1  0
225226  1  0
214216  1  0
225227  2  0
228229  1  0
228230  1  0
228231  1  0
229232  1  0
229233  1  0
230234  1  0
230235  2  0
231236  1  0
232237  1  0
233238  1  0
234237  1  0
236238  1  0
228239  1  1
236240  1  6
229241  1  1
241242  1  0
240243  1  0
240244  1  0
245246  1  0
245247  1  0
245248  1  1
246249  1  0
247250  1  0
247251  1  6
249252  1  0
249253  1  1
250254  1  1
252255  1  6
253256  1  0
250252  1  0
248257  1  0
257258  1  0
259258  1  6
259260  1  0
260261  1  6
261262  1  0
262263  1  0
258263  2  0
259264  1  0
264265  1  0
265266  1  0
260266  1  0
265267  1  1
264267  1  1
266268  1  0
268269  1  0
266270  1  1
261271  1  1
271272  1  0
272273  1  0
273274  1  0
274275  1  0
272276  2  0
274277  1  0
278279  1  0
278280  1  0
278281  1  1
279282  1  0
280283  1  0
280284  1  6
282285  1  0
282286  1  1
283287  1  1
285288  1  6
286289  1  0
283285  1  0
281290  1  0
290291  1  0
291292  1  0
292293  1  0
293294  1  6
294295  1  0
295296  1  0
291296  2  0
292297  1  6
297298  1  0
298299  1  0
293299  1  0
299300  1  0
300301  1  0
299302  1  6
294303  1  1
303304  1  0
304305  1  0
305306  1  0
306307  1  0
304308  2  0
306309  1  0
298310  1  1
311312  1  0
311313  1  0
311314  1  1
312315  1  0
313316  1  0
313317  1  6
315318  1  0
315319  1  1
316320  1  1
318321  1  6
319322  1  0
316318  1  0
314323  1  0
323324  1  0
325324  1  6
325326  1  0
326327  1  6
327328  1  0
328329  1  0
324329  2  0
325330  1  0
330331  1  0
331332  1  0
326332  1  0
332333  1  0
333334  1  0
332335  1  1
327336  1  1
336337  1  0
337338  1  0
338339  1  0
339340  1  0
337341  2  0
331342  1  1
330342  1  1
343322  1  1
343344  1  0
344345  1  0
345346  1  0
346347  1  0
347348  1  0
343348  1  0
347349  1  1
345350  1  1
350351  1  0
346352  1  6
348353  1  6
339354  1  0
355356  1  0
355357  1  0
355358  1  1
356359  1  0
357360  1  0
357361  1  6
359362  1  0
359363  1  1
360364  1  1
362365  1  6
363366  1  0
360362  1  0
358367  1  0
367368  1  0
368369  1  0
369370  1  0
370371  1  6
371372  1  0
372373  1  0
368373  2  0
369374  1  6
374375  1  0
375376  1  0
370376  1  0
376377  1  6
377378  1  0
371379  1  1
379380  1  0
380381  1  0
381382  1  0
382383  1  0
380384  2  0
385366  1  1
385386  1  0
386387  1  0
387388  1  0
388389  1  0
389390  1  0
385390  1  0
389391  1  1
387392  1  1
392393  1  0
388394  1  6
390395  1  6
382396  1  0
375397  1  1
398399  1  0
398400  1  0
398401  1  0
399402  1  0
402403  1  0
402404  2  0
M  END
