91820602
     RDKit          2D

 21 21  0  0  0  0  0  0  0  0999 V2000
    3.5000    0.0000    0.0000 Br  0  0  0  0  0  0  0  0  0  0  0  0
    7.3934    2.6250    0.0000 O   0  0  0  0  0  0  0  0  0  0  0  0
    7.7506    4.3199    0.0000 O   0  0  0  0  0  0  0  0  0  0  0  0
    3.2152    7.0458    0.0000 N   0  0  0  0  0  0  0  0  0  0  0  0
    3.2152    8.6552    0.0000 C   0  0  0  0  0  0  0  0  0  0  0  0
    2.2690    8.3505    0.0000 C   0  0  0  0  0  0  0  0  0  0  0  0
    3.7988    7.8505    0.0000 C   0  0  0  0  0  0  0  0  0  0  0  0
    2.2690    7.3505    0.0000 C   0  0  0  0  0  0  0  0  0  0  0  0
    3.5259    6.0952    0.0000 C   0  0  0  0  0  0  0  0  0  0  0  0
    4.0252    9.2416    0.0000 C   0  0  0  0  0  0  0  0  0  0  0  0
    2.9078    9.6068    0.0000 C   0  0  0  0  0  0  0  0  0  0  0  0
    4.5044    5.8890    0.0000 C   0  0  0  0  0  0  0  0  0  0  0  0
    1.4030    8.8505    0.0000 C   0  0  0  0  0  0  0  0  0  0  0  0
    1.4030    6.8505    0.0000 C   0  0  0  0  0  0  0  0  0  0  0  0
    4.8150    4.9385    0.0000 C   0  0  0  0  0  0  0  0  0  0  0  0
    4.7988    7.8505    0.0000 C   0  0  0  0  0  0  0  0  0  0  0  0
    0.5369    8.3505    0.0000 C   0  0  0  0  0  0  0  0  0  0  0  0
    5.7935    4.7323    0.0000 C   0  0  0  0  0  0  0  0  0  0  0  0
    0.5369    7.3505    0.0000 C   0  0  0  0  0  0  0  0  0  0  0  0
    6.1042    3.7818    0.0000 C   0  0  0  0  0  0  0  0  0  0  0  0
    7.0827    3.5756    0.0000 C   0  0  0  0  0  0  0  0  0  0  0  0
  2 21  1  0
  3 21  2  0
  4  7  1  0
  4  8  1  0
  4  9  1  0
  5  6  1  0
  5  7  1  0
  5 10  1  0
  5 11  1  0
  6  8  2  0
  6 13  1  0
  7 16  2  0
  8 14  1  0
  9 12  1  0
 12 15  1  0
 13 17  2  0
 14 19  2  0
 15 18  1  0
 17 19  1  0
 18 20  1  0
 20 21  1  0
M  END
