11593706
     RDKit          2D

 13 11  0  0  1  0  0  0  0  0999 V2000
    5.7229    2.3660    0.0000 Cl  0  0  0  0  0  0  0  0  0  0  0  0
    7.0889    0.0000    0.0000 O   0  0  0  0  0  0  0  0  0  0  0  0
    2.2690    3.8030    0.0000 O   0  0  0  0  0  0  0  0  0  0  0  0
    0.5369    3.8030    0.0000 O   0  0  0  0  0  0  0  0  0  0  0  0
    1.4030    2.3030    0.0000 O   0  0  0  0  0  0  0  0  0  0  0  0
    5.3429    5.4860    0.0000 N   0  0  0  0  0  0  0  0  0  0  0  0
    6.5889    0.8660    0.0000 C   0  0  0  0  0  0  0  0  0  0  0  0
    7.5889    0.8660    0.0000 C   0  0  0  0  0  0  0  0  0  0  0  0
    5.7229    1.3660    0.0000 C   0  0  0  0  0  0  0  0  0  0  0  0
    6.2089    4.9860    0.0000 C   0  0  0  0  0  0  0  0  0  0  0  0
    7.0749    5.4860    0.0000 C   0  0  0  0  0  0  0  0  0  0  0  0
    7.9409    4.9860    0.0000 C   0  0  0  0  0  0  0  0  0  0  0  0
    1.4030    3.3030    0.0000 C   0  0  0  0  0  0  0  0  0  0  0  0
  1  9  1  0
  2  7  1  0
  2  8  1  0
  3 13  1  0
  4 13  1  0
  5 13  2  0
  6 10  1  0
  7  8  1  0
  7  9  1  0
 10 11  1  0
 11 12  2  0
M  END
