 
     RDKit          2D

347390  0  0  0  0  0  0  0  0999 V2000
   25.3524  -15.9835    0.0000 C   0  0  0  0  0  0  0  0  0  0  0  0
   24.1435  -16.7020    0.0000 C   0  0  0  0  0  0  0  0  0  0  0  0
   25.3466  -14.5936    0.0000 C   0  0  0  0  0  0  0  0  0  0  0  0
   26.5613  -16.6727    0.0000 C   0  0  0  0  0  0  0  0  0  0  0  0
   22.8588  -16.0186    0.0000 C   0  0  0  0  0  0  0  0  0  0  0  0
   24.1611  -18.1036    0.0000 O   0  0  0  0  0  0  0  0  0  0  0  0
   24.1201  -13.8928    0.0000 C   0  0  0  0  0  0  0  0  0  0  0  0
   26.5496  -13.8870    0.0000 O   0  0  0  0  0  0  0  0  0  0  0  0
   27.7702  -15.9719    0.0000 C   0  0  0  0  0  0  0  0  0  0  0  0
   26.4972  -18.0802    0.0000 O   0  0  0  0  0  0  0  0  0  0  0  0
   22.9229  -14.6170    0.0000 C   0  0  0  0  0  0  0  0  0  0  0  0
   21.5973  -16.4508    0.0000 C   0  0  0  0  0  0  0  0  0  0  0  0
   22.9580  -18.8276    0.0000 C   0  0  0  0  0  0  0  0  0  0  0  0
   27.7644  -14.5819    0.0000 C   0  0  0  0  0  0  0  0  0  0  0  0
   21.5856  -14.1849    0.0000 O   0  0  0  0  0  0  0  0  0  0  0  0
   20.7679  -15.3237    0.0000 C   0  0  0  0  0  0  0  0  0  0  0  0
   28.9732  -13.8696    0.0000 C   0  0  0  0  0  0  0  0  0  0  0  0
   26.1080  -15.9956    0.0000 C   0  0  0  0  0  0  0  0  0  0  0  0
   24.8921  -16.6972    0.0000 C   0  0  0  0  0  0  0  0  0  0  0  0
   26.1139  -14.5985    0.0000 C   0  0  0  0  0  0  0  0  0  0  0  0
   27.3181  -16.6972    0.0000 C   0  0  0  0  0  0  0  0  0  0  0  0
   23.6760  -16.0016    0.0000 C   0  0  0  0  0  0  0  0  0  0  0  0
   24.8978  -18.1062    0.0000 O   0  0  0  0  0  0  0  0  0  0  0  0
   24.8921  -13.8853    0.0000 C   0  0  0  0  0  0  0  0  0  0  0  0
   27.3298  -13.8970    0.0000 O   0  0  0  0  0  0  0  0  0  0  0  0
   28.5340  -16.0073    0.0000 C   0  0  0  0  0  0  0  0  0  0  0  0
   27.3124  -18.1062    0.0000 O   0  0  0  0  0  0  0  0  0  0  0  0
   23.6819  -14.5868    0.0000 C   0  0  0  0  0  0  0  0  0  0  0  0
   22.3314  -16.4342    0.0000 C   0  0  0  0  0  0  0  0  0  0  0  0
   23.6819  -18.8135    0.0000 C   0  0  0  0  0  0  0  0  0  0  0  0
   28.5400  -14.6043    0.0000 C   0  0  0  0  0  0  0  0  0  0  0  0
   22.3314  -14.1424    0.0000 O   0  0  0  0  0  0  0  0  0  0  0  0
   21.5014  -15.2883    0.0000 C   0  0  0  0  0  0  0  0  0  0  0  0
   29.7559  -13.9087    0.0000 C   0  0  0  0  0  0  0  0  0  0  0  0
   20.0983  -15.2824    0.0000 C   0  0  0  0  0  0  0  0  0  0  0  0
   30.9720  -14.6160    0.0000 O   0  0  0  0  0  0  0  0  0  0  0  0
   19.3908  -14.0665    0.0000 C   0  0  0  0  0  0  0  0  0  0  0  0
   19.3908  -16.4985    0.0000 C   0  0  0  0  0  0  0  0  0  0  0  0
   18.8473  -15.3058    0.0000 O   0  0  0  0  0  0  0  0  0  0  0  0
   25.2000  -22.7500    0.0000 C   0  0  0  0  0  0  0  0  0  0  0  0
   25.2000  -24.1500    0.0000 C   0  0  0  0  0  0  0  0  0  0  0  0
   26.4124  -24.8500    0.0000 C   0  0  0  0  0  0  0  0  0  0  0  0
   27.6249  -24.1500    0.0000 C   0  0  0  0  0  0  0  0  0  0  0  0
   27.6249  -22.7500    0.0000 C   0  0  0  0  0  0  0  0  0  0  0  0
   26.4124  -22.0500    0.0000 C   0  0  0  0  0  0  0  0  0  0  0  0
   28.8560  -22.0390    0.0000 O   0  0  0  0  0  0  0  0  0  0  0  0
   28.8560  -20.6390    0.0000 C   0  0  0  0  0  0  0  0  0  0  0  0
   28.8560  -24.8610    0.0000 O   0  0  0  0  0  0  0  0  0  0  0  0
   23.9876  -22.0500    0.0000 C   0  0  0  0  0  0  0  0  0  0  0  0
   22.7921  -22.7404    0.0000 C   0  0  0  0  0  0  0  0  0  0  0  0
   21.6047  -22.0549    0.0000 C   0  0  0  0  0  0  0  0  0  0  0  0
   20.4135  -22.7429    0.0000 O   0  0  0  0  0  0  0  0  0  0  0  0
   21.6045  -20.6502    0.0000 O   0  0  0  0  0  0  0  0  0  0  0  0
   24.0818  -20.6728    0.0000 C   0  0  0  0  0  0  0  0  0  0  0  0
   22.8690  -21.3537    0.0000 C   0  0  0  0  0  0  0  0  0  0  0  0
   25.2176  -21.2792    0.0000 C   0  0  0  0  0  0  0  0  0  0  0  0
   22.8574  -19.9671    0.0000 C   0  0  0  0  0  0  0  0  0  0  0  0
   24.0935  -19.2860    0.0000 C   0  0  0  0  0  0  0  0  0  0  0  0
   22.8631  -22.7461    0.0000 C   0  0  0  0  0  0  0  0  0  0  0  0
   21.6691  -20.6669    0.0000 C   0  0  0  0  0  0  0  0  0  0  0  0
   26.4644  -20.6669    0.0000 C   0  0  0  0  0  0  0  0  0  0  0  0
   25.2000  -22.7518    0.0000 C   0  0  0  0  0  0  0  0  0  0  0  0
   25.2934  -18.5979    0.0000 C   0  0  0  0  0  0  0  0  0  0  0  0
   24.0701  -23.4457    0.0000 C   0  0  0  0  0  0  0  0  0  0  0  0
   21.6691  -23.4399    0.0000 C   0  0  0  0  0  0  0  0  0  0  0  0
   20.4690  -21.3537    0.0000 C   0  0  0  0  0  0  0  0  0  0  0  0
   26.4877  -19.3036    0.0000 C   0  0  0  0  0  0  0  0  0  0  0  0
   28.9283  -20.6435    0.0000 C   0  0  0  0  0  0  0  0  0  0  0  0
   26.4411  -21.9194    0.0000 C   0  0  0  0  0  0  0  0  0  0  0  0
   20.4690  -22.7461    0.0000 C   0  0  0  0  0  0  0  0  0  0  0  0
   27.6876  -18.6272    0.0000 C   0  0  0  0  0  0  0  0  0  0  0  0
   26.4761  -17.9170    0.0000 C   0  0  0  0  0  0  0  0  0  0  0  0
   28.8759  -19.3327    0.0000 C   0  0  0  0  0  0  0  0  0  0  0  0
   19.2691  -23.4399    0.0000 O   0  0  0  0  0  0  0  0  0  0  0  0
   27.7051  -17.2406    0.0000 C   0  0  0  0  0  0  0  0  0  0  0  0
   28.9167  -16.5655    0.0000 C   0  0  0  0  0  0  0  0  0  0  0  0
   26.5168  -16.5363    0.0000 C   0  0  0  0  0  0  0  0  0  0  0  0
   30.1108  -17.2698    0.0000 C   0  0  0  0  0  0  0  0  0  0  0  0
   31.3167  -16.5946    0.0000 C   0  0  0  0  0  0  0  0  0  0  0  0
   32.5107  -17.2989    0.0000 C   0  0  0  0  0  0  0  0  0  0  0  0
   33.7294  -16.6239    0.0000 C   0  0  0  0  0  0  0  0  0  0  0  0
   32.4933  -18.6855    0.0000 C   0  0  0  0  0  0  0  0  0  0  0  0
   20.9690  -24.7778    0.0000 C   0  0  0  0  0  0  0  0  0  0  0  0
   22.3572  -24.8478    0.0000 C   0  0  0  0  0  0  0  0  0  0  0  0
   27.4243  -26.2975    0.0000 C   0  0  0  0  0  0  0  0  0  0  0  0
   27.4243  -27.6253    0.0000 C   0  0  0  0  0  0  0  0  0  0  0  0
   28.5425  -28.3242    0.0000 C   0  0  0  0  0  0  0  0  0  0  0  0
   29.7305  -27.6253    0.0000 C   0  0  0  0  0  0  0  0  0  0  0  0
   29.7305  -26.2975    0.0000 C   0  0  0  0  0  0  0  0  0  0  0  0
   28.5425  -25.5986    0.0000 C   0  0  0  0  0  0  0  0  0  0  0  0
   30.9186  -28.3242    0.0000 C   0  0  0  0  0  0  0  0  0  0  0  0
   32.1067  -27.6253    0.0000 C   0  0  0  0  0  0  0  0  0  0  0  0
   32.1067  -26.2975    0.0000 C   0  0  0  0  0  0  0  0  0  0  0  0
   30.9186  -25.5986    0.0000 C   0  0  0  0  0  0  0  0  0  0  0  0
   33.2249  -25.5986    0.0000 C   0  0  0  0  0  0  0  0  0  0  0  0
   33.2249  -24.2708    0.0000 C   0  0  0  0  0  0  0  0  0  0  0  0
   32.1067  -23.5719    0.0000 C   0  0  0  0  0  0  0  0  0  0  0  0
   30.9186  -24.2708    0.0000 C   0  0  0  0  0  0  0  0  0  0  0  0
   33.2249  -27.2759    0.0000 C   0  0  0  0  0  0  0  0  0  0  0  0
   33.2249  -22.9429    0.0000 C   0  0  0  0  0  0  0  0  0  0  0  0
   29.7305  -24.9696    0.0000 C   0  0  0  0  0  0  0  0  0  0  0  0
   26.2362  -28.3242    0.0000 O   0  0  0  0  0  0  0  0  0  0  0  0
   28.0533  -29.8617    0.0000 C   0  0  0  0  0  0  0  0  0  0  0  0
   29.1016  -29.8617    0.0000 C   0  0  0  0  0  0  0  0  0  0  0  0
   34.5527  -26.0179    0.0000 C   0  0  0  0  0  0  0  0  0  0  0  0
   35.3215  -24.9696    0.0000 C   0  0  0  0  0  0  0  0  0  0  0  0
   34.5527  -23.8514    0.0000 C   0  0  0  0  0  0  0  0  0  0  0  0
   36.7192  -24.8299    0.0000 O   0  0  0  0  0  0  0  0  0  0  0  0
   37.2783  -23.5020    0.0000 C   0  0  0  0  0  0  0  0  0  0  0  0
   36.5096  -22.4537    0.0000 C   0  0  0  0  0  0  0  0  0  0  0  0
   35.1118  -22.5935    0.0000 C   0  0  0  0  0  0  0  0  0  0  0  0
   36.0902  -26.0878    0.0000 O   0  0  0  0  0  0  0  0  0  0  0  0
   37.9772  -24.7600    0.0000 C   0  0  0  0  0  0  0  0  0  0  0  0
   39.3749  -24.7600    0.0000 C   0  0  0  0  0  0  0  0  0  0  0  0
   40.0738  -26.0179    0.0000 O   0  0  0  0  0  0  0  0  0  0  0  0
   40.0738  -23.6418    0.0000 C   0  0  0  0  0  0  0  0  0  0  0  0
   40.7727  -24.7600    0.0000 C   0  0  0  0  0  0  0  0  0  0  0  0
   34.3092  -21.4832    0.0000 C   0  0  0  0  0  0  0  0  0  0  0  0
   34.9966  -27.3766    0.0000 O   0  0  0  0  0  0  0  0  0  0  0  0
   16.0733  -14.9559    0.0000 C   0  0  0  0  0  0  0  0  0  0  0  0
   16.0733  -16.3595    0.0000 C   0  0  0  0  0  0  0  0  0  0  0  0
   17.2889  -17.0613    0.0000 C   0  0  0  0  0  0  0  0  0  0  0  0
   18.5045  -16.3595    0.0000 C   0  0  0  0  0  0  0  0  0  0  0  0
   18.5045  -14.9559    0.0000 C   0  0  0  0  0  0  0  0  0  0  0  0
   17.2889  -14.2540    0.0000 C   0  0  0  0  0  0  0  0  0  0  0  0
   14.8578  -17.0613    0.0000 C   0  0  0  0  0  0  0  0  0  0  0  0
   14.8578  -18.4649    0.0000 C   0  0  0  0  0  0  0  0  0  0  0  0
   16.0733  -19.1668    0.0000 C   0  0  0  0  0  0  0  0  0  0  0  0
   17.2889  -18.4649    0.0000 C   0  0  0  0  0  0  0  0  0  0  0  0
   13.6421  -16.3595    0.0000 C   0  0  0  0  0  0  0  0  0  0  0  0
   12.4265  -17.0613    0.0000 C   0  0  0  0  0  0  0  0  0  0  0  0
   12.4265  -18.4649    0.0000 C   0  0  0  0  0  0  0  0  0  0  0  0
   13.6421  -19.1668    0.0000 C   0  0  0  0  0  0  0  0  0  0  0  0
   14.8578  -15.6577    0.0000 C   0  0  0  0  0  0  0  0  0  0  0  0
   19.8395  -16.7932    0.0000 C   0  0  0  0  0  0  0  0  0  0  0  0
   20.6645  -15.6577    0.0000 C   0  0  0  0  0  0  0  0  0  0  0  0
   19.8395  -14.5221    0.0000 C   0  0  0  0  0  0  0  0  0  0  0  0
   22.0604  -15.5109    0.0000 O   0  0  0  0  0  0  0  0  0  0  0  0
   22.6313  -14.2287    0.0000 C   0  0  0  0  0  0  0  0  0  0  0  0
   21.8063  -13.0931    0.0000 C   0  0  0  0  0  0  0  0  0  0  0  0
   20.4103  -13.2398    0.0000 C   0  0  0  0  0  0  0  0  0  0  0  0
   19.8395  -18.1969    0.0000 O   0  0  0  0  0  0  0  0  0  0  0  0
   24.0349  -14.2287    0.0000 C   0  0  0  0  0  0  0  0  0  0  0  0
   24.7399  -15.4492    0.0000 C   0  0  0  0  0  0  0  0  0  0  0  0
   26.1093  -15.4490    0.0000 C   0  0  0  0  0  0  0  0  0  0  0  0
   24.0310  -16.6780    0.0000 O   0  0  0  0  0  0  0  0  0  0  0  0
   25.4417  -16.6648    0.0000 C   0  0  0  0  0  0  0  0  0  0  0  0
   24.7176  -13.0454    0.0000 O   0  0  0  0  0  0  0  0  0  0  0  0
   18.5045  -13.5522    0.0000 C   0  0  0  0  0  0  0  0  0  0  0  0
   18.5045  -17.7631    0.0000 C   0  0  0  0  0  0  0  0  0  0  0  0
   12.9403  -20.5227    0.0000 C   0  0  0  0  0  0  0  0  0  0  0  0
   14.1457  -20.5226    0.0000 C   0  0  0  0  0  0  0  0  0  0  0  0
   11.2089  -19.1680    0.0000 O   0  0  0  0  0  0  0  0  0  0  0  0
   19.5934  -12.1150    0.0000 C   0  0  0  0  0  0  0  0  0  0  0  0
   21.2100  -23.5900    0.0000 C   0  0  0  0  0  0  0  0  0  0  0  0
   21.2100  -24.9900    0.0000 C   0  0  0  0  0  0  0  0  0  0  0  0
   20.0200  -22.8900    0.0000 C   0  0  0  0  0  0  0  0  0  0  0  0
   18.8300  -23.5900    0.0000 C   0  0  0  0  0  0  0  0  0  0  0  0
   18.8300  -24.9900    0.0000 C   0  0  0  0  0  0  0  0  0  0  0  0
   20.0200  -25.6900    0.0000 C   0  0  0  0  0  0  0  0  0  0  0  0
   19.3200  -27.0200    0.0000 C   0  0  0  0  0  0  0  0  0  0  0  0
   20.5100  -27.0200    0.0000 C   0  0  0  0  0  0  0  0  0  0  0  0
   20.0200  -24.2900    0.0000 O   0  0  0  0  0  0  0  0  0  0  0  0
   22.3300  -22.6800    0.0000 C   0  0  0  0  0  0  0  0  0  0  0  0
   23.6600  -23.0300    0.0000 C   0  0  0  0  0  0  0  0  0  0  0  0
   24.2900  -24.2900    0.0000 C   0  0  0  0  0  0  0  0  0  0  0  0
   23.6600  -25.5500    0.0000 C   0  0  0  0  0  0  0  0  0  0  0  0
   22.3300  -25.8300    0.0000 C   0  0  0  0  0  0  0  0  0  0  0  0
   25.6900  -24.3600    0.0000 C   0  0  0  0  0  0  0  0  0  0  0  0
   26.4600  -23.2400    0.0000 C   0  0  0  0  0  0  0  0  0  0  0  0
   25.8300  -21.9800    0.0000 C   0  0  0  0  0  0  0  0  0  0  0  0
   24.4300  -21.8400    0.0000 C   0  0  0  0  0  0  0  0  0  0  0  0
   26.5300  -25.4800    0.0000 C   0  0  0  0  0  0  0  0  0  0  0  0
   27.8600  -24.9900    0.0000 C   0  0  0  0  0  0  0  0  0  0  0  0
   27.7900  -23.5900    0.0000 C   0  0  0  0  0  0  0  0  0  0  0  0
   26.5300  -26.8800    0.0000 O   0  0  0  0  0  0  0  0  0  0  0  0
   28.9800  -22.6800    0.0000 C   0  0  0  0  0  0  0  0  0  0  0  0
   30.3100  -23.0300    0.0000 C   0  0  0  0  0  0  0  0  0  0  0  0
   30.9400  -24.2900    0.0000 C   0  0  0  0  0  0  0  0  0  0  0  0
   30.3100  -25.5500    0.0000 C   0  0  0  0  0  0  0  0  0  0  0  0
   28.9800  -25.8300    0.0000 O   0  0  0  0  0  0  0  0  0  0  0  0
   24.9900  -25.5500    0.0000 C   0  0  0  0  0  0  0  0  0  0  0  0
   27.1600  -22.0500    0.0000 C   0  0  0  0  0  0  0  0  0  0  0  0
   29.3300  -24.5700    0.0000 O   0  0  0  0  0  0  0  0  0  0  0  0
   28.9800  -21.2800    0.0000 C   0  0  0  0  0  0  0  0  0  0  0  0
   31.5000  -26.2500    0.0000 C   0  0  0  0  0  0  0  0  0  0  0  0
   32.6900  -25.5500    0.0000 C   0  0  0  0  0  0  0  0  0  0  0  0
   31.5000  -27.6500    0.0000 O   0  0  0  0  0  0  0  0  0  0  0  0
   32.7600  -26.9500    0.0000 C   0  0  0  0  0  0  0  0  0  0  0  0
   19.4572  -32.3792    0.0000 C   0  0  0  0  0  0  0  0  0  0  0  0
   19.4667  -33.7659    0.0000 C   0  0  0  0  0  0  0  0  0  0  0  0
   18.2503  -31.6965    0.0000 O   0  0  0  0  0  0  0  0  0  0  0  0
   18.2745  -34.4729    0.0000 C   0  0  0  0  0  0  0  0  0  0  0  0
   20.6734  -34.4488    0.0000 O   0  0  0  0  0  0  0  0  0  0  0  0
   17.0554  -32.4085    0.0000 C   0  0  0  0  0  0  0  0  0  0  0  0
   17.0678  -33.7900    0.0000 C   0  0  0  0  0  0  0  0  0  0  0  0
   18.2869  -35.8543    0.0000 O   0  0  0  0  0  0  0  0  0  0  0  0
   15.8786  -34.4917    0.0000 O   0  0  0  0  0  0  0  0  0  0  0  0
   25.4822  -28.9236    0.0000 C   0  0  0  0  0  0  0  0  0  0  0  0
   24.2771  -29.6139    0.0000 C   0  0  0  0  0  0  0  0  0  0  0  0
   26.6697  -29.6256    0.0000 C   0  0  0  0  0  0  0  0  0  0  0  0
   24.2654  -28.2275    0.0000 C   0  0  0  0  0  0  0  0  0  0  0  0
   25.4881  -27.5429    0.0000 C   0  0  0  0  0  0  0  0  0  0  0  0
   24.2712  -31.0004    0.0000 C   0  0  0  0  0  0  0  0  0  0  0  0
   23.0779  -28.9178    0.0000 C   0  0  0  0  0  0  0  0  0  0  0  0
   27.8690  -28.9412    0.0000 C   0  0  0  0  0  0  0  0  0  0  0  0
   26.6697  -31.0121    0.0000 C   0  0  0  0  0  0  0  0  0  0  0  0
   26.6931  -26.8643    0.0000 C   0  0  0  0  0  0  0  0  0  0  0  0
   25.4647  -31.6965    0.0000 C   0  0  0  0  0  0  0  0  0  0  0  0
   23.0779  -31.6907    0.0000 C   0  0  0  0  0  0  0  0  0  0  0  0
   21.8786  -29.6139    0.0000 C   0  0  0  0  0  0  0  0  0  0  0  0
   27.8865  -27.5664    0.0000 C   0  0  0  0  0  0  0  0  0  0  0  0
   30.2499  -28.9004    0.0000 C   0  0  0  0  0  0  0  0  0  0  0  0
   27.8573  -30.3218    0.0000 C   0  0  0  0  0  0  0  0  0  0  0  0
   26.6814  -25.4722    0.0000 O   0  0  0  0  0  0  0  0  0  0  0  0
   21.8786  -31.0004    0.0000 C   0  0  0  0  0  0  0  0  0  0  0  0
   23.8547  -33.0303    0.0000 C   0  0  0  0  0  0  0  0  0  0  0  0
   22.3699  -33.0241    0.0000 C   0  0  0  0  0  0  0  0  0  0  0  0
   29.0857  -26.8877    0.0000 C   0  0  0  0  0  0  0  0  0  0  0  0
   27.8807  -26.3200    0.0000 C   0  0  0  0  0  0  0  0  0  0  0  0
   30.2675  -27.5957    0.0000 C   0  0  0  0  0  0  0  0  0  0  0  0
   25.4881  -24.7759    0.0000 C   0  0  0  0  0  0  0  0  0  0  0  0
   20.6793  -31.6907    0.0000 O   0  0  0  0  0  0  0  0  0  0  0  0
   29.1034  -25.5131    0.0000 C   0  0  0  0  0  0  0  0  0  0  0  0
   31.4668  -26.9229    0.0000 O   0  0  0  0  0  0  0  0  0  0  0  0
   24.2946  -25.4722    0.0000 C   0  0  0  0  0  0  0  0  0  0  0  0
   25.4881  -23.3953    0.0000 O   0  0  0  0  0  0  0  0  0  0  0  0
   30.3084  -24.8402    0.0000 C   0  0  0  0  0  0  0  0  0  0  0  0
   27.9158  -24.3853    0.0000 C   0  0  0  0  0  0  0  0  0  0  0  0
   31.4785  -25.4782    0.0000 C   0  0  0  0  0  0  0  0  0  0  0  0
   31.7710  -24.2027    0.0000 C   0  0  0  0  0  0  0  0  0  0  0  0
   32.6778  -26.2385    0.0000 O   0  0  0  0  0  0  0  0  0  0  0  0
   33.1399  -23.9922    0.0000 C   0  0  0  0  0  0  0  0  0  0  0  0
   32.3267  -22.9508    0.0000 O   0  0  0  0  0  0  0  0  0  0  0  0
   33.6957  -25.3142    0.0000 C   0  0  0  0  0  0  0  0  0  0  0  0
   34.5029  -23.8283    0.0000 C   0  0  0  0  0  0  0  0  0  0  0  0
   35.0529  -25.6067    0.0000 O   0  0  0  0  0  0  0  0  0  0  0  0
   25.1300  -19.9500    0.0000 C   0  0  0  0  0  0  0  0  0  0  0  0
   25.1300  -21.3500    0.0000 C   0  0  0  0  0  0  0  0  0  0  0  0
   26.3424  -22.0500    0.0000 C   0  0  0  0  0  0  0  0  0  0  0  0
   27.5549  -21.3500    0.0000 C   0  0  0  0  0  0  0  0  0  0  0  0
   27.5549  -19.9500    0.0000 C   0  0  0  0  0  0  0  0  0  0  0  0
   26.3424  -19.2500    0.0000 O   0  0  0  0  0  0  0  0  0  0  0  0
   23.9176  -19.2500    0.0000 C   0  0  0  0  0  0  0  0  0  0  0  0
   22.7051  -19.9500    0.0000 C   0  0  0  0  0  0  0  0  0  0  0  0
   22.7051  -21.3500    0.0000 C   0  0  0  0  0  0  0  0  0  0  0  0
   23.9176  -22.0500    0.0000 C   0  0  0  0  0  0  0  0  0  0  0  0
   21.3736  -19.5174    0.0000 O   0  0  0  0  0  0  0  0  0  0  0  0
   20.5507  -20.6500    0.0000 C   0  0  0  0  0  0  0  0  0  0  0  0
   21.3736  -21.7826    0.0000 C   0  0  0  0  0  0  0  0  0  0  0  0
   19.1800  -20.6500    0.0000 C   0  0  0  0  0  0  0  0  0  0  0  0
   18.4800  -19.4376    0.0000 O   0  0  0  0  0  0  0  0  0  0  0  0
   18.4800  -21.8624    0.0000 C   0  0  0  0  0  0  0  0  0  0  0  0
   17.7800  -20.6500    0.0000 C   0  0  0  0  0  0  0  0  0  0  0  0
   26.3424  -23.4498    0.0000 O   0  0  0  0  0  0  0  0  0  0  0  0
   28.7860  -19.2390    0.0000 C   0  0  0  0  0  0  0  0  0  0  0  0
   23.9176  -23.4498    0.0000 O   0  0  0  0  0  0  0  0  0  0  0  0
   11.6900  -25.0600    0.0000 C   0  0  0  0  0  0  0  0  0  0  0  0
   11.6900  -26.4600    0.0000 C   0  0  0  0  0  0  0  0  0  0  0  0
   12.9024  -27.1600    0.0000 C   0  0  0  0  0  0  0  0  0  0  0  0
   14.1149  -26.4600    0.0000 C   0  0  0  0  0  0  0  0  0  0  0  0
   14.1149  -25.0600    0.0000 C   0  0  0  0  0  0  0  0  0  0  0  0
   12.9024  -24.3600    0.0000 C   0  0  0  0  0  0  0  0  0  0  0  0
   15.3273  -27.1600    0.0000 C   0  0  0  0  0  0  0  0  0  0  0  0
   16.5397  -26.4600    0.0000 C   0  0  0  0  0  0  0  0  0  0  0  0
   16.5397  -25.0600    0.0000 C   0  0  0  0  0  0  0  0  0  0  0  0
   15.3273  -24.3600    0.0000 C   0  0  0  0  0  0  0  0  0  0  0  0
   17.7522  -24.3600    0.0000 C   0  0  0  0  0  0  0  0  0  0  0  0
   17.7522  -22.9600    0.0000 C   0  0  0  0  0  0  0  0  0  0  0  0
   16.5397  -22.2600    0.0000 C   0  0  0  0  0  0  0  0  0  0  0  0
   15.3273  -22.9600    0.0000 C   0  0  0  0  0  0  0  0  0  0  0  0
   20.1770  -24.3600    0.0000 C   0  0  0  0  0  0  0  0  0  0  0  0
   20.1770  -22.9600    0.0000 C   0  0  0  0  0  0  0  0  0  0  0  0
   18.9646  -22.2600    0.0000 C   0  0  0  0  0  0  0  0  0  0  0  0
   10.4776  -27.1600    0.0000 O   0  0  0  0  0  0  0  0  0  0  0  0
   14.1149  -23.6600    0.0000 C   0  0  0  0  0  0  0  0  0  0  0  0
   17.7522  -21.5600    0.0000 C   0  0  0  0  0  0  0  0  0  0  0  0
   18.9646  -20.8600    0.0000 C   0  0  0  0  0  0  0  0  0  0  0  0
   20.1824  -20.1600    0.0000 C   0  0  0  0  0  0  0  0  0  0  0  0
   21.3949  -20.8600    0.0000 C   0  0  0  0  0  0  0  0  0  0  0  0
   22.6073  -20.1600    0.0000 C   0  0  0  0  0  0  0  0  0  0  0  0
   23.8197  -20.8600    0.0000 C   0  0  0  0  0  0  0  0  0  0  0  0
   25.0322  -20.1600    0.0000 C   0  0  0  0  0  0  0  0  0  0  0  0
   22.6073  -18.7600    0.0000 C   0  0  0  0  0  0  0  0  0  0  0  0
   21.3969  -18.0612    0.0000 C   0  0  0  0  0  0  0  0  0  0  0  0
   23.8197  -22.2599    0.0000 C   0  0  0  0  0  0  0  0  0  0  0  0
   17.7569  -20.1612    0.0000 C   0  0  0  0  0  0  0  0  0  0  0  0
   26.3890  -22.3751    0.0000 C   0  0  0  0  0  0  0  0  0  0  0  0
   25.2471  -23.0284    0.0000 C   0  0  0  0  0  0  0  0  0  0  0  0
   26.3826  -21.0493    0.0000 C   0  0  0  0  0  0  0  0  0  0  0  0
   28.6918  -22.4195    0.0000 C   0  0  0  0  0  0  0  0  0  0  0  0
   24.0798  -22.3877    0.0000 C   0  0  0  0  0  0  0  0  0  0  0  0
   25.2533  -24.3670    0.0000 C   0  0  0  0  0  0  0  0  0  0  0  0
   27.5310  -20.3703    0.0000 C   0  0  0  0  0  0  0  0  0  0  0  0
   25.2344  -20.3831    0.0000 C   0  0  0  0  0  0  0  0  0  0  0  0
   26.3953  -19.4948    0.0000 C   0  0  0  0  0  0  0  0  0  0  0  0
   28.6918  -21.0301    0.0000 C   0  0  0  0  0  0  0  0  0  0  0  0
   22.9443  -23.0411    0.0000 C   0  0  0  0  0  0  0  0  0  0  0  0
   24.1052  -20.9160    0.0000 C   0  0  0  0  0  0  0  0  0  0  0  0
   24.0990  -25.0394    0.0000 C   0  0  0  0  0  0  0  0  0  0  0  0
   27.5245  -18.9874    0.0000 C   0  0  0  0  0  0  0  0  0  0  0  0
   22.9506  -24.3797    0.0000 C   0  0  0  0  0  0  0  0  0  0  0  0
   21.7833  -22.4006    0.0000 C   0  0  0  0  0  0  0  0  0  0  0  0
   22.9760  -21.4107    0.0000 C   0  0  0  0  0  0  0  0  0  0  0  0
   28.7172  -18.2896    0.0000 C   0  0  0  0  0  0  0  0  0  0  0  0
   26.4015  -18.1628    0.0000 C   0  0  0  0  0  0  0  0  0  0  0  0
   21.8024  -25.0521    0.0000 C   0  0  0  0  0  0  0  0  0  0  0  0
   20.6414  -23.0602    0.0000 C   0  0  0  0  0  0  0  0  0  0  0  0
   29.9162  -18.9747    0.0000 C   0  0  0  0  0  0  0  0  0  0  0  0
   20.6540  -24.3861    0.0000 C   0  0  0  0  0  0  0  0  0  0  0  0
   31.1089  -18.2768    0.0000 C   0  0  0  0  0  0  0  0  0  0  0  0
   19.4550  -25.0775    0.0000 O   0  0  0  0  0  0  0  0  0  0  0  0
   32.3270  -18.9874    0.0000 C   0  0  0  0  0  0  0  0  0  0  0  0
   33.5195  -18.2960    0.0000 C   0  0  0  0  0  0  0  0  0  0  0  0
   32.3332  -20.5795    0.0000 C   0  0  0  0  0  0  0  0  0  0  0  0
   31.1080  -16.8784    0.0000 C   0  0  0  0  0  0  0  0  0  0  0  0
   29.8841  -16.1728    0.0000 C   0  0  0  0  0  0  0  0  0  0  0  0
   28.6300  -20.7200    0.0000 C   0  0  0  0  0  0  0  0  0  0  0  0
   28.6300  -22.1200    0.0000 C   0  0  0  0  0  0  0  0  0  0  0  0
   29.8424  -22.8200    0.0000 C   0  0  0  0  0  0  0  0  0  0  0  0
   31.0549  -22.1200    0.0000 C   0  0  0  0  0  0  0  0  0  0  0  0
   31.0549  -20.7200    0.0000 C   0  0  0  0  0  0  0  0  0  0  0  0
   29.8424  -20.0200    0.0000 O   0  0  0  0  0  0  0  0  0  0  0  0
   27.4176  -20.0200    0.0000 C   0  0  0  0  0  0  0  0  0  0  0  0
   26.2051  -20.7200    0.0000 C   0  0  0  0  0  0  0  0  0  0  0  0
   26.2051  -22.1200    0.0000 C   0  0  0  0  0  0  0  0  0  0  0  0
   27.4176  -22.8200    0.0000 C   0  0  0  0  0  0  0  0  0  0  0  0
   24.8736  -20.2874    0.0000 O   0  0  0  0  0  0  0  0  0  0  0  0
   24.0507  -21.4200    0.0000 C   0  0  0  0  0  0  0  0  0  0  0  0
   24.8736  -22.5526    0.0000 C   0  0  0  0  0  0  0  0  0  0  0  0
   32.2860  -20.0090    0.0000 C   0  0  0  0  0  0  0  0  0  0  0  0
   29.8424  -24.2198    0.0000 O   0  0  0  0  0  0  0  0  0  0  0  0
   27.4176  -24.2198    0.0000 O   0  0  0  0  0  0  0  0  0  0  0  0
   28.0700  -19.5300    0.0000 C   0  0  0  0  0  0  0  0  0  0  0  0
   28.0700  -20.9300    0.0000 C   0  0  0  0  0  0  0  0  0  0  0  0
   26.8100  -21.6300    0.0000 C   0  0  0  0  0  0  0  0  0  0  0  0
   25.6200  -20.9300    0.0000 C   0  0  0  0  0  0  0  0  0  0  0  0
   25.6200  -19.5300    0.0000 C   0  0  0  0  0  0  0  0  0  0  0  0
   26.8100  -18.8300    0.0000 C   0  0  0  0  0  0  0  0  0  0  0  0
   29.2600  -18.8300    0.0000 C   0  0  0  0  0  0  0  0  0  0  0  0
   30.4500  -19.5300    0.0000 C   0  0  0  0  0  0  0  0  0  0  0  0
   31.6400  -18.8300    0.0000 C   0  0  0  0  0  0  0  0  0  0  0  0
   32.8300  -19.5300    0.0000 O   0  0  0  0  0  0  0  0  0  0  0  0
   31.6400  -17.4300    0.0000 O   0  0  0  0  0  0  0  0  0  0  0  0
   24.3600  -18.8300    0.0000 O   0  0  0  0  0  0  0  0  0  0  0  0
   24.3600  -21.7000    0.0000 O   0  0  0  0  0  0  0  0  0  0  0  0
   23.1700  -21.0000    0.0000 C   0  0  0  0  0  0  0  0  0  0  0  0
  1  2  2  0
  1  3  1  0
  1  4  1  0
  2  5  1  0
  2  6  1  0
  3  7  2  0
  3  8  1  0
  4  9  1  0
  4 10  2  0
  5 11  2  0
  5 12  1  0
  6 13  1  0
  8 14  1  0
 11 15  1  0
 12 16  2  0
 14 17  1  0
  7 11  1  0
  9 14  2  0
 15 16  1  0
 18 19  2  0
 18 20  1  0
 18 21  1  0
 19 22  1  0
 19 23  1  0
 20 24  2  0
 20 25  1  0
 21 26  1  0
 21 27  2  0
 22 28  2  0
 22 29  1  0
 23 30  1  0
 25 31  1  0
 28 32  1  0
 29 33  1  0
 31 34  1  0
 33 35  1  1
 34 36  1  0
 35 37  1  0
 35 38  1  0
 35 39  1  0
 24 28  1  0
 26 31  2  0
 32 33  1  0
 40 41  2  0
 41 42  1  0
 42 43  2  0
 43 44  1  0
 44 45  2  0
 40 45  1  0
 44 46  1  0
 46 47  1  0
 43 48  1  0
 40 49  1  0
 49 50  2  0
 50 51  1  0
 51 52  1  0
 51 53  2  0
 54 58  1  6
 55 59  1  0
 55 60  1  6
 56 61  1  0
 56 62  1  6
 58 63  1  0
 59 64  1  1
 59 65  1  0
 60 66  1  0
 61 67  1  0
 61 68  1  0
 61 69  1  6
 65 70  1  0
 67 71  1  0
 67 72  1  1
 68 73  1  0
 70 74  1  1
 71 75  1  0
 75 76  1  0
 75 77  1  6
 76 78  1  0
 78 79  1  0
 79 80  2  3
 80 81  1  0
 80 82  1  0
 55 57  1  0
 62 64  1  0
 63 67  1  0
 66 70  1  0
 71 73  1  1
 54 55  1  0
 54 56  1  0
 65 83  1  0
 54 57  1  0
 65 84  1  0
 85 86  1  0
 86 87  1  0
 87 88  1  0
 88 89  1  0
 89 90  1  6
 85 90  1  0
 88 91  1  1
 91 92  1  0
 93 92  1  6
 93 94  1  0
 89 94  1  0
 93 95  1  0
 95 96  1  0
 96 97  1  0
 97 98  1  0
 94 98  1  6
 95 99  1  6
 96100  1  1
 89101  1  0
 94101  1  0
 86102  1  1
 87103  1  0
 87104  1  0
 95105  1  0
105106  1  0
106107  1  0
 96107  1  0
106108  1  0
109108  1  0
109110  1  0
110111  1  0
107111  1  1
106112  1  6
109113  1  0
112113  1  0
114115  1  0
114116  1  0
114117  1  0
113114  1  1
111118  1  6
105119  1  6
121120  1  6
121122  1  0
122123  1  0
123124  1  0
124125  1  0
120125  1  0
121126  1  0
126127  1  0
127128  1  1
128129  1  0
122129  1  6
126130  1  6
130131  1  0
131132  1  0
132133  1  0
127133  1  0
126134  1  0
121134  1  0
123135  1  0
135136  1  0
136137  1  0
124137  1  0
136138  1  1
138139  1  0
139140  1  6
140141  1  0
137141  1  1
135142  2  0
139143  1  0
143144  1  0
144145  1  0
144146  1  0
144147  1  0
143148  1  1
124149  1  1
123150  1  6
133151  1  0
133152  1  0
132153  1  1
141154  1  6
155156  1  0
155157  1  6
157158  1  0
158159  1  0
159160  1  0
156160  1  0
160161  1  0
160162  1  0
159163  1  0
155163  1  0
165166  2  0
166167  1  0
164165  1  0
156168  1  1
155164  1  0
167168  1  0
166169  1  0
169170  1  0
170171  1  0
171172  1  0
165172  1  0
169173  1  0
173174  1  0
174175  1  0
170175  1  0
173176  1  6
179178  1  6
179180  1  0
177178  1  0
174181  1  6
175177  1  1
180181  1  0
169182  1  6
170183  1  1
174184  1  0
179184  1  0
177185  1  6
180186  1  1
186187  1  0
186188  1  0
186189  1  0
191194  1  6
192195  1  0
193196  1  0
193197  1  1
196198  1  6
195196  1  0
190191  1  0
190192  1  0
199200  1  0
199201  1  0
199202  1  1
199203  1  0
200204  1  0
200205  1  6
201206  1  0
201207  2  0
203208  1  0
204209  1  1
204210  1  0
205211  1  0
206212  1  0
206213  1  0
206214  1  6
208215  1  1
210216  1  0
210217  1  0
210218  1  0
212219  1  0
212220  1  1
221213  1  1
215222  1  0
216223  1  1
219224  1  1
221225  1  0
222226  1  0
222227  2  0
224228  1  0
224229  1  6
225230  1  0
230231  1  0
230232  1  0
231233  1  0
231234  1  0
232235  1  0
233236  1  0
235237  1  0
200202  1  0
207209  1  0
208212  1  0
211216  1  0
219221  1  0
228230  1  0
233234  1  0
233235  1  0
191193  1  0
190223  1  1
238239  2  0
239240  1  0
240241  1  0
241242  2  0
242243  1  0
238243  1  0
238244  1  0
244245  2  0
245246  1  0
246247  2  0
239247  1  0
245248  1  0
248249  1  0
249250  1  0
246250  1  0
249251  1  0
251252  1  0
251253  1  0
251254  1  0
240255  2  0
242256  1  0
247257  1  0
258259  1  0
259260  1  0
260261  1  0
261262  1  0
262263  1  0
258263  1  0
261264  2  0
264265  1  0
266265  1  6
266267  1  0
262267  1  0
266268  1  0
268269  1  0
269270  1  0
270271  1  0
267271  1  1
268272  1  1
272273  1  0
274273  1  1
269274  1  0
259275  1  1
262276  1  1
269277  1  1
274278  1  0
278279  1  0
279280  1  0
281280  1  1
281282  1  0
282283  1  0
281284  1  0
284285  1  0
282286  1  0
278287  1  6
288289  1  0
288290  1  0
288291  1  1
289292  1  0
289293  1  6
290294  1  0
290295  1  0
290296  1  1
291297  1  0
292298  1  0
292299  1  1
293300  1  0
294301  1  0
298302  1  0
298303  1  0
298304  1  1
301305  1  0
301306  1  6
302307  1  0
303308  1  0
305309  2  0
307310  1  0
309311  1  0
310312  1  1
311313  1  0
313314  1  0
313315  1  0
294297  1  1
295299  1  0
300302  2  0
308310  1  0
311316  1  1
316317  1  0
318319  2  0
319320  1  0
320321  1  0
321322  2  0
322323  1  0
318323  1  0
318324  1  0
324325  2  0
325326  1  0
326327  2  0
319327  1  0
325328  1  0
328329  1  0
329330  2  0
326330  1  0
322331  1  0
320332  2  0
327333  1  0
334335  2  0
335336  1  0
336337  2  0
337338  1  0
338339  2  0
334339  1  0
334340  1  0
340341  2  0
341342  1  0
342343  1  0
342344  2  0
338345  1  0
337346  1  0
346347  1  0
M  END
