 
     RDKit          2D

635706  0  0  1  0  0  0  0  0999 V2000
   20.4749  -16.9003    0.0000 C   0  0  0  0  0  0  0  0  0  0  0  0
   19.2660  -16.1937    0.0000 C   0  0  0  0  0  0  0  0  0  0  0  0
   20.4690  -18.2962    0.0000 C   0  0  0  0  0  0  0  0  0  0  0  0
   21.6896  -16.2171    0.0000 C   0  0  0  0  0  0  0  0  0  0  0  0
   21.0942  -15.4928    0.0000 C   0  0  0  0  0  0  0  0  0  0  0  0
   18.0453  -16.8886    0.0000 C   0  0  0  0  0  0  0  0  0  0  0  0
   19.2776  -14.7919    0.0000 C   0  0  0  0  0  0  0  0  0  0  0  0
   19.2542  -19.0029    0.0000 C   0  0  0  0  0  0  0  0  0  0  0  0
   21.6722  -19.0145    0.0000 O   0  0  0  0  0  0  0  0  0  0  0  0
   21.7013  -14.8154    0.0000 C   0  0  0  0  0  0  0  0  0  0  0  0
   22.9045  -16.9179    0.0000 C   0  0  0  0  0  0  0  0  0  0  0  0
   18.0393  -18.2903    0.0000 C   0  0  0  0  0  0  0  0  0  0  0  0
   16.8363  -16.1877    0.0000 C   0  0  0  0  0  0  0  0  0  0  0  0
   18.0336  -15.7615    0.0000 C   0  0  0  0  0  0  0  0  0  0  0  0
   20.4983  -14.0970    0.0000 C   0  0  0  0  0  0  0  0  0  0  0  0
   18.0686  -13.9392    0.0000 O   0  0  0  0  0  0  0  0  0  0  0  0
   22.8869  -18.3197    0.0000 C   0  0  0  0  0  0  0  0  0  0  0  0
   22.9220  -14.1202    0.0000 C   0  0  0  0  0  0  0  0  0  0  0  0
   16.8363  -18.9971    0.0000 C   0  0  0  0  0  0  0  0  0  0  0  0
   15.6157  -16.8886    0.0000 C   0  0  0  0  0  0  0  0  0  0  0  0
   16.8363  -14.7860    0.0000 O   0  0  0  0  0  0  0  0  0  0  0  0
   20.5099  -12.6953    0.0000 O   0  0  0  0  0  0  0  0  0  0  0  0
   24.1018  -19.0379    0.0000 O   0  0  0  0  0  0  0  0  0  0  0  0
   15.6157  -18.2903    0.0000 C   0  0  0  0  0  0  0  0  0  0  0  0
   16.8363  -20.4046    0.0000 C   0  0  0  0  0  0  0  0  0  0  0  0
   14.3950  -16.1877    0.0000 O   0  0  0  0  0  0  0  0  0  0  0  0
   21.7130  -11.9828    0.0000 C   0  0  0  0  0  0  0  0  0  0  0  0
   13.1803  -16.8886    0.0000 C   0  0  0  0  0  0  0  0  0  0  0  0
   29.9600  -23.5900    0.0000 C   0  0  0  0  0  0  0  0  0  0  0  0
   28.7700  -22.8900    0.0000 C   0  0  0  0  0  0  0  0  0  0  0  0
   31.2200  -22.9600    0.0000 C   0  0  0  0  0  0  0  0  0  0  0  0
   29.9600  -25.0600    0.0000 C   0  0  0  0  0  0  0  0  0  0  0  0
   29.9600  -22.2600    0.0000 C   0  0  0  0  0  0  0  0  0  0  0  0
   27.5800  -23.5900    0.0000 C   0  0  0  0  0  0  0  0  0  0  0  0
   28.7700  -21.4900    0.0000 C   0  0  0  0  0  0  0  0  0  0  0  0
   31.2200  -21.5600    0.0000 C   0  0  0  0  0  0  0  0  0  0  0  0
   32.4100  -23.6600    0.0000 C   0  0  0  0  0  0  0  0  0  0  0  0
   28.7700  -25.7600    0.0000 C   0  0  0  0  0  0  0  0  0  0  0  0
   31.2200  -25.7600    0.0000 O   0  0  0  0  0  0  0  0  0  0  0  0
   27.5800  -25.0600    0.0000 C   0  0  0  0  0  0  0  0  0  0  0  0
   26.3900  -22.8900    0.0000 C   0  0  0  0  0  0  0  0  0  0  0  0
   27.5800  -22.1900    0.0000 C   0  0  0  0  0  0  0  0  0  0  0  0
   29.9600  -20.7200    0.0000 C   0  0  0  0  0  0  0  0  0  0  0  0
   32.4100  -25.1300    0.0000 C   0  0  0  0  0  0  0  0  0  0  0  0
   26.3900  -25.7600    0.0000 C   0  0  0  0  0  0  0  0  0  0  0  0
   25.0600  -23.5900    0.0000 C   0  0  0  0  0  0  0  0  0  0  0  0
   26.3900  -21.4900    0.0000 O   0  0  0  0  0  0  0  0  0  0  0  0
   33.6700  -25.8300    0.0000 O   0  0  0  0  0  0  0  0  0  0  0  0
   25.0600  -25.0600    0.0000 C   0  0  0  0  0  0  0  0  0  0  0  0
   26.3900  -27.1600    0.0000 C   0  0  0  0  0  0  0  0  0  0  0  0
   23.8700  -22.8900    0.0000 O   0  0  0  0  0  0  0  0  0  0  0  0
   32.4100  -20.7900    0.0000 C   0  0  0  0  0  0  0  0  0  0  0  0
   27.7900  -20.4400    0.0000 O   0  0  0  0  0  0  0  0  0  0  0  0
   29.9600  -19.3200    0.0000 O   0  0  0  0  0  0  0  0  0  0  0  0
   22.6519  -23.5801    0.0000 C   0  0  0  0  0  0  0  0  0  0  0  0
   29.3300  -21.4900    0.0000 C   0  0  0  0  0  0  0  0  0  0  0  0
   28.1400  -20.7900    0.0000 C   0  0  0  0  0  0  0  0  0  0  0  0
   30.5900  -20.8600    0.0000 C   0  0  0  0  0  0  0  0  0  0  0  0
   29.3300  -22.9600    0.0000 C   0  0  0  0  0  0  0  0  0  0  0  0
   29.3300  -20.1600    0.0000 C   0  0  0  0  0  0  0  0  0  0  0  0
   27.0200  -21.4900    0.0000 C   0  0  0  0  0  0  0  0  0  0  0  0
   28.1400  -19.3900    0.0000 C   0  0  0  0  0  0  0  0  0  0  0  0
   30.5900  -19.4600    0.0000 C   0  0  0  0  0  0  0  0  0  0  0  0
   31.7800  -21.5600    0.0000 C   0  0  0  0  0  0  0  0  0  0  0  0
   28.1400  -23.6600    0.0000 C   0  0  0  0  0  0  0  0  0  0  0  0
   30.5900  -23.6600    0.0000 O   0  0  0  0  0  0  0  0  0  0  0  0
   27.0200  -22.9600    0.0000 C   0  0  0  0  0  0  0  0  0  0  0  0
   25.8300  -20.7900    0.0000 C   0  0  0  0  0  0  0  0  0  0  0  0
   27.0200  -20.0900    0.0000 C   0  0  0  0  0  0  0  0  0  0  0  0
   29.3300  -18.6200    0.0000 C   0  0  0  0  0  0  0  0  0  0  0  0
   31.7800  -23.0300    0.0000 C   0  0  0  0  0  0  0  0  0  0  0  0
   25.8300  -23.6600    0.0000 C   0  0  0  0  0  0  0  0  0  0  0  0
   24.5000  -21.4900    0.0000 C   0  0  0  0  0  0  0  0  0  0  0  0
   25.8300  -19.3900    0.0000 O   0  0  0  0  0  0  0  0  0  0  0  0
   33.0400  -23.7300    0.0000 O   0  0  0  0  0  0  0  0  0  0  0  0
   24.5000  -22.9600    0.0000 C   0  0  0  0  0  0  0  0  0  0  0  0
   25.8300  -25.0600    0.0000 C   0  0  0  0  0  0  0  0  0  0  0  0
   23.3100  -20.7900    0.0000 O   0  0  0  0  0  0  0  0  0  0  0  0
   31.7800  -18.6900    0.0000 C   0  0  0  0  0  0  0  0  0  0  0  0
   27.2300  -18.3400    0.0000 O   0  0  0  0  0  0  0  0  0  0  0  0
   29.3300  -17.2900    0.0000 O   0  0  0  0  0  0  0  0  0  0  0  0
   22.1200  -21.4900    0.0000 C   0  0  0  0  0  0  0  0  0  0  0  0
   30.5424  -16.5900    0.0000 C   0  0  0  0  0  0  0  0  0  0  0  0
   29.4000  -21.8400    0.0000 C   0  0  0  0  0  0  0  0  0  0  0  0
   28.2100  -21.1400    0.0000 C   0  0  0  0  0  0  0  0  0  0  0  0
   30.6600  -21.2100    0.0000 C   0  0  0  0  0  0  0  0  0  0  0  0
   29.4000  -23.3100    0.0000 C   0  0  0  0  0  0  0  0  0  0  0  0
   29.4000  -20.5100    0.0000 C   0  0  0  0  0  0  0  0  0  0  0  0
   27.0900  -21.8400    0.0000 C   0  0  0  0  0  0  0  0  0  0  0  0
   28.2100  -19.7400    0.0000 C   0  0  0  0  0  0  0  0  0  0  0  0
   30.6600  -19.8100    0.0000 C   0  0  0  0  0  0  0  0  0  0  0  0
   31.8500  -21.9100    0.0000 C   0  0  0  0  0  0  0  0  0  0  0  0
   28.2100  -24.0100    0.0000 C   0  0  0  0  0  0  0  0  0  0  0  0
   30.6600  -24.0100    0.0000 O   0  0  0  0  0  0  0  0  0  0  0  0
   27.0900  -23.3100    0.0000 C   0  0  0  0  0  0  0  0  0  0  0  0
   25.9000  -21.1400    0.0000 C   0  0  0  0  0  0  0  0  0  0  0  0
   27.0900  -20.4400    0.0000 C   0  0  0  0  0  0  0  0  0  0  0  0
   29.4000  -18.9700    0.0000 C   0  0  0  0  0  0  0  0  0  0  0  0
   31.8500  -23.3800    0.0000 C   0  0  0  0  0  0  0  0  0  0  0  0
   25.9000  -24.0100    0.0000 C   0  0  0  0  0  0  0  0  0  0  0  0
   24.5700  -21.8400    0.0000 C   0  0  0  0  0  0  0  0  0  0  0  0
   25.9000  -19.7400    0.0000 O   0  0  0  0  0  0  0  0  0  0  0  0
   33.0400  -24.0800    0.0000 O   0  0  0  0  0  0  0  0  0  0  0  0
   24.5700  -23.3100    0.0000 C   0  0  0  0  0  0  0  0  0  0  0  0
   25.9000  -25.4100    0.0000 C   0  0  0  0  0  0  0  0  0  0  0  0
   23.3800  -21.1400    0.0000 O   0  0  0  0  0  0  0  0  0  0  0  0
   31.8500  -19.0400    0.0000 C   0  0  0  0  0  0  0  0  0  0  0  0
   27.3000  -18.6900    0.0000 O   0  0  0  0  0  0  0  0  0  0  0  0
   29.4000  -17.6400    0.0000 O   0  0  0  0  0  0  0  0  0  0  0  0
   22.1900  -21.8400    0.0000 C   0  0  0  0  0  0  0  0  0  0  0  0
   30.5900  -16.9400    0.0000 C   0  0  0  0  0  0  0  0  0  0  0  0
   27.2796  -17.2901    0.0000 C   0  0  0  0  0  0  0  0  0  0  0  0
   28.4968  -16.5635    0.0000 O   0  0  0  0  0  0  0  0  0  0  0  0
   26.0727  -16.6165    0.0000 C   0  0  0  0  0  0  0  0  0  0  0  0
   20.4749  -16.9003    0.0000 C   0  0  0  0  0  0  0  0  0  0  0  0
   19.2660  -16.1937    0.0000 C   0  0  0  0  0  0  0  0  0  0  0  0
   20.4690  -18.2962    0.0000 C   0  0  0  0  0  0  0  0  0  0  0  0
   21.6896  -16.2171    0.0000 C   0  0  0  0  0  0  0  0  0  0  0  0
   21.0942  -15.4928    0.0000 C   0  0  0  0  0  0  0  0  0  0  0  0
   18.0453  -16.8886    0.0000 C   0  0  0  0  0  0  0  0  0  0  0  0
   19.2776  -14.7919    0.0000 C   0  0  0  0  0  0  0  0  0  0  0  0
   19.2542  -19.0029    0.0000 C   0  0  0  0  0  0  0  0  0  0  0  0
   21.6722  -19.0145    0.0000 O   0  0  0  0  0  0  0  0  0  0  0  0
   21.7013  -14.8154    0.0000 C   0  0  0  0  0  0  0  0  0  0  0  0
   22.9045  -16.9179    0.0000 C   0  0  0  0  0  0  0  0  0  0  0  0
   18.0393  -18.2903    0.0000 C   0  0  0  0  0  0  0  0  0  0  0  0
   16.8363  -16.1877    0.0000 C   0  0  0  0  0  0  0  0  0  0  0  0
   18.0336  -15.7615    0.0000 C   0  0  0  0  0  0  0  0  0  0  0  0
   20.4983  -14.0970    0.0000 C   0  0  0  0  0  0  0  0  0  0  0  0
   18.0686  -13.9392    0.0000 O   0  0  0  0  0  0  0  0  0  0  0  0
   22.8869  -18.3197    0.0000 C   0  0  0  0  0  0  0  0  0  0  0  0
   22.9220  -14.1202    0.0000 C   0  0  0  0  0  0  0  0  0  0  0  0
   16.8363  -18.9971    0.0000 C   0  0  0  0  0  0  0  0  0  0  0  0
   15.6157  -16.8886    0.0000 C   0  0  0  0  0  0  0  0  0  0  0  0
   16.8363  -14.7860    0.0000 O   0  0  0  0  0  0  0  0  0  0  0  0
   20.5099  -12.6953    0.0000 O   0  0  0  0  0  0  0  0  0  0  0  0
   24.1018  -19.0379    0.0000 O   0  0  0  0  0  0  0  0  0  0  0  0
   15.6157  -18.2903    0.0000 C   0  0  0  0  0  0  0  0  0  0  0  0
   16.8363  -20.4046    0.0000 C   0  0  0  0  0  0  0  0  0  0  0  0
   14.3950  -16.1877    0.0000 O   0  0  0  0  0  0  0  0  0  0  0  0
   21.7130  -11.9828    0.0000 C   0  0  0  0  0  0  0  0  0  0  0  0
   13.1803  -16.8886    0.0000 C   0  0  0  0  0  0  0  0  0  0  0  0
   29.3300  -22.0500    0.0000 C   0  0  0  0  0  0  0  0  0  0  0  0
   28.1400  -21.3500    0.0000 C   0  0  0  0  0  0  0  0  0  0  0  0
   30.5900  -21.4200    0.0000 C   0  0  0  0  0  0  0  0  0  0  0  0
   29.3300  -23.5200    0.0000 C   0  0  0  0  0  0  0  0  0  0  0  0
   29.3300  -20.7200    0.0000 C   0  0  0  0  0  0  0  0  0  0  0  0
   27.0200  -22.0500    0.0000 C   0  0  0  0  0  0  0  0  0  0  0  0
   28.1400  -19.9500    0.0000 C   0  0  0  0  0  0  0  0  0  0  0  0
   30.5900  -20.0200    0.0000 C   0  0  0  0  0  0  0  0  0  0  0  0
   31.7800  -22.1200    0.0000 C   0  0  0  0  0  0  0  0  0  0  0  0
   28.1400  -24.1500    0.0000 C   0  0  0  0  0  0  0  0  0  0  0  0
   30.5900  -24.1500    0.0000 O   0  0  0  0  0  0  0  0  0  0  0  0
   27.0200  -23.5200    0.0000 C   0  0  0  0  0  0  0  0  0  0  0  0
   25.8300  -21.3500    0.0000 C   0  0  0  0  0  0  0  0  0  0  0  0
   27.0200  -20.6500    0.0000 C   0  0  0  0  0  0  0  0  0  0  0  0
   29.3300  -19.1800    0.0000 C   0  0  0  0  0  0  0  0  0  0  0  0
   31.7800  -23.5900    0.0000 C   0  0  0  0  0  0  0  0  0  0  0  0
   25.8300  -24.1500    0.0000 C   0  0  0  0  0  0  0  0  0  0  0  0
   24.5000  -22.0500    0.0000 C   0  0  0  0  0  0  0  0  0  0  0  0
   25.8300  -19.9500    0.0000 O   0  0  0  0  0  0  0  0  0  0  0  0
   32.9700  -24.2200    0.0000 O   0  0  0  0  0  0  0  0  0  0  0  0
   24.5000  -23.5200    0.0000 C   0  0  0  0  0  0  0  0  0  0  0  0
   25.8300  -25.5500    0.0000 C   0  0  0  0  0  0  0  0  0  0  0  0
   23.3800  -21.3500    0.0000 O   0  0  0  0  0  0  0  0  0  0  0  0
   27.2300  -18.9000    0.0000 O   0  0  0  0  0  0  0  0  0  0  0  0
   29.3300  -17.8500    0.0000 O   0  0  0  0  0  0  0  0  0  0  0  0
   22.1900  -22.0500    0.0000 C   0  0  0  0  0  0  0  0  0  0  0  0
   30.5200  -17.1500    0.0000 C   0  0  0  0  0  0  0  0  0  0  0  0
   27.2300  -17.5000    0.0000 C   0  0  0  0  0  0  0  0  0  0  0  0
   28.4900  -16.7300    0.0000 O   0  0  0  0  0  0  0  0  0  0  0  0
   26.0400  -16.8000    0.0000 C   0  0  0  0  0  0  0  0  0  0  0  0
   31.8243  -19.3594    0.0000 C   0  0  0  0  0  0  0  0  0  0  0  0
   31.7021  -20.8704    0.0000 O   0  0  0  0  0  0  0  0  0  0  0  0
   29.3300  -22.1200    0.0000 C   0  0  0  0  0  0  0  0  0  0  0  0
   28.1400  -21.4200    0.0000 C   0  0  0  0  0  0  0  0  0  0  0  0
   30.6600  -21.4900    0.0000 C   0  0  0  0  0  0  0  0  0  0  0  0
   29.3300  -23.5900    0.0000 C   0  0  0  0  0  0  0  0  0  0  0  0
   29.3300  -20.7900    0.0000 C   0  0  0  0  0  0  0  0  0  0  0  0
   27.0200  -22.1200    0.0000 C   0  0  0  0  0  0  0  0  0  0  0  0
   28.1400  -20.0200    0.0000 C   0  0  0  0  0  0  0  0  0  0  0  0
   30.6600  -20.0900    0.0000 C   0  0  0  0  0  0  0  0  0  0  0  0
   31.8500  -22.1900    0.0000 C   0  0  0  0  0  0  0  0  0  0  0  0
   28.1400  -24.2200    0.0000 C   0  0  0  0  0  0  0  0  0  0  0  0
   30.6600  -24.2200    0.0000 O   0  0  0  0  0  0  0  0  0  0  0  0
   27.0200  -23.5900    0.0000 C   0  0  0  0  0  0  0  0  0  0  0  0
   25.8300  -21.4200    0.0000 C   0  0  0  0  0  0  0  0  0  0  0  0
   27.0200  -20.7200    0.0000 C   0  0  0  0  0  0  0  0  0  0  0  0
   29.3300  -19.2500    0.0000 C   0  0  0  0  0  0  0  0  0  0  0  0
   31.8500  -23.6600    0.0000 C   0  0  0  0  0  0  0  0  0  0  0  0
   25.8300  -24.2200    0.0000 C   0  0  0  0  0  0  0  0  0  0  0  0
   24.5000  -22.1200    0.0000 C   0  0  0  0  0  0  0  0  0  0  0  0
   25.8300  -20.0200    0.0000 O   0  0  0  0  0  0  0  0  0  0  0  0
   33.0400  -24.2900    0.0000 O   0  0  0  0  0  0  0  0  0  0  0  0
   24.5000  -23.5900    0.0000 C   0  0  0  0  0  0  0  0  0  0  0  0
   25.8300  -25.6200    0.0000 C   0  0  0  0  0  0  0  0  0  0  0  0
   23.3800  -21.4200    0.0000 O   0  0  0  0  0  0  0  0  0  0  0  0
   27.2300  -18.9700    0.0000 O   0  0  0  0  0  0  0  0  0  0  0  0
   29.3300  -17.8500    0.0000 O   0  0  0  0  0  0  0  0  0  0  0  0
   22.1900  -22.1200    0.0000 C   0  0  0  0  0  0  0  0  0  0  0  0
   30.5900  -17.1500    0.0000 C   0  0  0  0  0  0  0  0  0  0  0  0
   31.8500  -19.3900    0.0000 C   0  0  0  0  0  0  0  0  0  0  0  0
   31.7800  -20.9300    0.0000 O   0  0  0  0  0  0  0  0  0  0  0  0
   29.3300  -21.8400    0.0000 C   0  0  0  0  0  0  0  0  0  0  0  0
   28.1400  -21.1400    0.0000 C   0  0  0  0  0  0  0  0  0  0  0  0
   30.6600  -21.2100    0.0000 C   0  0  0  0  0  0  0  0  0  0  0  0
   29.3300  -23.3800    0.0000 C   0  0  0  0  0  0  0  0  0  0  0  0
   29.3300  -20.5100    0.0000 C   0  0  0  0  0  0  0  0  0  0  0  0
   27.0200  -21.8400    0.0000 C   0  0  0  0  0  0  0  0  0  0  0  0
   28.1400  -19.7400    0.0000 C   0  0  0  0  0  0  0  0  0  0  0  0
   30.6600  -19.8100    0.0000 C   0  0  0  0  0  0  0  0  0  0  0  0
   31.8500  -21.9100    0.0000 C   0  0  0  0  0  0  0  0  0  0  0  0
   28.1400  -24.0100    0.0000 C   0  0  0  0  0  0  0  0  0  0  0  0
   30.6600  -24.0100    0.0000 O   0  0  0  0  0  0  0  0  0  0  0  0
   27.0200  -23.3800    0.0000 C   0  0  0  0  0  0  0  0  0  0  0  0
   25.8300  -21.1400    0.0000 C   0  0  0  0  0  0  0  0  0  0  0  0
   27.0200  -20.4400    0.0000 C   0  0  0  0  0  0  0  0  0  0  0  0
   29.3300  -18.9700    0.0000 C   0  0  0  0  0  0  0  0  0  0  0  0
   31.8500  -23.4500    0.0000 C   0  0  0  0  0  0  0  0  0  0  0  0
   25.8300  -24.0100    0.0000 C   0  0  0  0  0  0  0  0  0  0  0  0
   24.5000  -21.8400    0.0000 C   0  0  0  0  0  0  0  0  0  0  0  0
   25.8300  -19.7400    0.0000 O   0  0  0  0  0  0  0  0  0  0  0  0
   33.0400  -24.0800    0.0000 O   0  0  0  0  0  0  0  0  0  0  0  0
   24.5000  -23.3800    0.0000 C   0  0  0  0  0  0  0  0  0  0  0  0
   25.8300  -25.4100    0.0000 C   0  0  0  0  0  0  0  0  0  0  0  0
   30.6600  -22.5400    0.0000 O   0  0  0  0  0  0  0  0  0  0  0  0
   23.3800  -21.1400    0.0000 O   0  0  0  0  0  0  0  0  0  0  0  0
   27.2300  -18.6900    0.0000 O   0  0  0  0  0  0  0  0  0  0  0  0
   29.3300  -17.5700    0.0000 O   0  0  0  0  0  0  0  0  0  0  0  0
   22.1200  -21.8400    0.0000 C   0  0  0  0  0  0  0  0  0  0  0  0
   30.5900  -16.8700    0.0000 C   0  0  0  0  0  0  0  0  0  0  0  0
   31.8500  -19.1100    0.0000 C   0  0  0  0  0  0  0  0  0  0  0  0
   31.7800  -20.6500    0.0000 O   0  0  0  0  0  0  0  0  0  0  0  0
   14.0000  -26.3900    0.0000 C   0  0  0  0  0  0  0  0  0  0  0  0
   14.0000  -27.7900    0.0000 C   0  0  0  0  0  0  0  0  0  0  0  0
   15.2124  -28.4900    0.0000 C   0  0  0  0  0  0  0  0  0  0  0  0
   16.4249  -27.7900    0.0000 C   0  0  0  0  0  0  0  0  0  0  0  0
   16.4249  -26.3900    0.0000 C   0  0  0  0  0  0  0  0  0  0  0  0
   15.2124  -25.6900    0.0000 C   0  0  0  0  0  0  0  0  0  0  0  0
   17.6373  -28.4900    0.0000 C   0  0  0  0  0  0  0  0  0  0  0  0
   18.8497  -27.7900    0.0000 C   0  0  0  0  0  0  0  0  0  0  0  0
   18.8497  -26.3900    0.0000 C   0  0  0  0  0  0  0  0  0  0  0  0
   17.6373  -25.6900    0.0000 C   0  0  0  0  0  0  0  0  0  0  0  0
   20.0622  -28.4900    0.0000 O   0  0  0  0  0  0  0  0  0  0  0  0
   21.2746  -27.7900    0.0000 C   0  0  0  0  0  0  0  0  0  0  0  0
   21.2746  -26.3900    0.0000 C   0  0  0  0  0  0  0  0  0  0  0  0
   20.0622  -25.6900    0.0000 C   0  0  0  0  0  0  0  0  0  0  0  0
   20.0622  -24.2900    0.0000 C   0  0  0  0  0  0  0  0  0  0  0  0
   18.8497  -23.5900    0.0000 C   0  0  0  0  0  0  0  0  0  0  0  0
   17.6373  -24.2900    0.0000 C   0  0  0  0  0  0  0  0  0  0  0  0
   12.7876  -25.6900    0.0000 O   0  0  0  0  0  0  0  0  0  0  0  0
   11.5921  -26.3804    0.0000 C   0  0  0  0  0  0  0  0  0  0  0  0
   22.4911  -28.4923    0.0000 O   0  0  0  0  0  0  0  0  0  0  0  0
   21.2953  -23.5778    0.0000 C   0  0  0  0  0  0  0  0  0  0  0  0
   21.2954  -25.0021    0.0000 O   0  0  0  0  0  0  0  0  0  0  0  0
   18.8497  -22.1901    0.0000 O   0  0  0  0  0  0  0  0  0  0  0  0
   16.7769  -23.2412    0.0000 O   0  0  0  0  0  0  0  0  0  0  0  0
   15.2124  -24.2902    0.0000 O   0  0  0  0  0  0  0  0  0  0  0  0
   16.4249  -24.9902    0.0000 C   0  0  0  0  0  0  0  0  0  0  0  0
   20.0474  -21.4986    0.0000 C   0  0  0  0  0  0  0  0  0  0  0  0
   18.8497  -25.1301    0.0000 C   0  0  0  0  0  0  0  0  0  0  0  0
   15.2124  -29.8898    0.0000 C   0  0  0  0  0  0  0  0  0  0  0  0
   24.6073  -21.5076    0.0000 C   0  0  0  0  0  0  0  0  0  0  0  0
   24.6073  -22.9177    0.0000 C   0  0  0  0  0  0  0  0  0  0  0  0
   25.8059  -23.6228    0.0000 C   0  0  0  0  0  0  0  0  0  0  0  0
   27.0045  -22.9177    0.0000 C   0  0  0  0  0  0  0  0  0  0  0  0
   27.0045  -21.5076    0.0000 C   0  0  0  0  0  0  0  0  0  0  0  0
   25.8059  -20.8026    0.0000 C   0  0  0  0  0  0  0  0  0  0  0  0
   28.2736  -23.6228    0.0000 C   0  0  0  0  0  0  0  0  0  0  0  0
   29.4722  -22.9177    0.0000 C   0  0  0  0  0  0  0  0  0  0  0  0
   29.4722  -21.5076    0.0000 C   0  0  0  0  0  0  0  0  0  0  0  0
   28.2736  -20.8026    0.0000 C   0  0  0  0  0  0  0  0  0  0  0  0
   30.7413  -23.6228    0.0000 O   0  0  0  0  0  0  0  0  0  0  0  0
   31.9399  -22.9177    0.0000 C   0  0  0  0  0  0  0  0  0  0  0  0
   31.9399  -21.5076    0.0000 C   0  0  0  0  0  0  0  0  0  0  0  0
   30.7413  -20.8026    0.0000 C   0  0  0  0  0  0  0  0  0  0  0  0
   30.7413  -19.3925    0.0000 C   0  0  0  0  0  0  0  0  0  0  0  0
   29.4722  -18.6874    0.0000 C   0  0  0  0  0  0  0  0  0  0  0  0
   28.2736  -19.3925    0.0000 C   0  0  0  0  0  0  0  0  0  0  0  0
   23.3382  -20.8026    0.0000 O   0  0  0  0  0  0  0  0  0  0  0  0
   22.1397  -21.5076    0.0000 C   0  0  0  0  0  0  0  0  0  0  0  0
   33.1385  -23.6228    0.0000 O   0  0  0  0  0  0  0  0  0  0  0  0
   31.9399  -18.6874    0.0000 C   0  0  0  0  0  0  0  0  0  0  0  0
   31.9399  -20.0975    0.0000 O   0  0  0  0  0  0  0  0  0  0  0  0
   25.8059  -19.3925    0.0000 O   0  0  0  0  0  0  0  0  0  0  0  0
   27.0045  -20.2385    0.0000 C   0  0  0  0  0  0  0  0  0  0  0  0
   29.4722  -20.2385    0.0000 C   0  0  0  0  0  0  0  0  0  0  0  0
   25.8059  -25.0329    0.0000 C   0  0  0  0  0  0  0  0  0  0  0  0
   29.1720  -17.3296    0.0000 O   0  0  0  0  0  0  0  0  0  0  0  0
   27.7879  -17.1955    0.0000 C   0  0  0  0  0  0  0  0  0  0  0  0
   27.2327  -18.4704    0.0000 O   0  0  0  0  0  0  0  0  0  0  0  0
   24.6400  -21.4900    0.0000 C   0  0  0  0  0  0  0  0  0  0  0  0
   24.6400  -22.8900    0.0000 C   0  0  0  0  0  0  0  0  0  0  0  0
   25.8300  -23.5900    0.0000 C   0  0  0  0  0  0  0  0  0  0  0  0
   27.0200  -22.8900    0.0000 C   0  0  0  0  0  0  0  0  0  0  0  0
   27.0200  -21.4900    0.0000 C   0  0  0  0  0  0  0  0  0  0  0  0
   25.8300  -20.7900    0.0000 C   0  0  0  0  0  0  0  0  0  0  0  0
   28.2800  -23.5900    0.0000 C   0  0  0  0  0  0  0  0  0  0  0  0
   29.4700  -22.8900    0.0000 C   0  0  0  0  0  0  0  0  0  0  0  0
   29.4700  -21.4900    0.0000 C   0  0  0  0  0  0  0  0  0  0  0  0
   28.2800  -20.7900    0.0000 C   0  0  0  0  0  0  0  0  0  0  0  0
   30.7300  -23.5900    0.0000 O   0  0  0  0  0  0  0  0  0  0  0  0
   31.9200  -22.8900    0.0000 C   0  0  0  0  0  0  0  0  0  0  0  0
   31.9200  -21.4900    0.0000 C   0  0  0  0  0  0  0  0  0  0  0  0
   30.7300  -20.7900    0.0000 C   0  0  0  0  0  0  0  0  0  0  0  0
   30.7300  -19.3900    0.0000 C   0  0  0  0  0  0  0  0  0  0  0  0
   29.4700  -18.6900    0.0000 C   0  0  0  0  0  0  0  0  0  0  0  0
   28.2800  -19.3900    0.0000 C   0  0  0  0  0  0  0  0  0  0  0  0
   23.3100  -20.7900    0.0000 O   0  0  0  0  0  0  0  0  0  0  0  0
   22.1200  -21.4900    0.0000 C   0  0  0  0  0  0  0  0  0  0  0  0
   33.1100  -23.5900    0.0000 O   0  0  0  0  0  0  0  0  0  0  0  0
   31.9200  -18.6900    0.0000 C   0  0  0  0  0  0  0  0  0  0  0  0
   25.8300  -19.3900    0.0000 O   0  0  0  0  0  0  0  0  0  0  0  0
   27.0200  -20.1600    0.0000 C   0  0  0  0  0  0  0  0  0  0  0  0
   29.4700  -20.2300    0.0000 C   0  0  0  0  0  0  0  0  0  0  0  0
   25.8300  -25.0600    0.0000 C   0  0  0  0  0  0  0  0  0  0  0  0
   29.4528  -17.2901    0.0000 O   0  0  0  0  0  0  0  0  0  0  0  0
   27.2047  -18.4149    0.0000 O   0  0  0  0  0  0  0  0  0  0  0  0
   30.7128  -22.1899    0.0000 O   0  0  0  0  0  0  0  0  0  0  0  0
   24.6400  -21.4900    0.0000 C   0  0  0  0  0  0  0  0  0  0  0  0
   24.6400  -22.8900    0.0000 C   0  0  0  0  0  0  0  0  0  0  0  0
   25.8300  -23.5900    0.0000 C   0  0  0  0  0  0  0  0  0  0  0  0
   27.0200  -22.8900    0.0000 C   0  0  0  0  0  0  0  0  0  0  0  0
   27.0200  -21.4900    0.0000 C   0  0  0  0  0  0  0  0  0  0  0  0
   25.8300  -20.7900    0.0000 C   0  0  0  0  0  0  0  0  0  0  0  0
   28.2800  -23.5900    0.0000 C   0  0  0  0  0  0  0  0  0  0  0  0
   29.4700  -22.8900    0.0000 C   0  0  0  0  0  0  0  0  0  0  0  0
   29.4700  -21.4900    0.0000 C   0  0  0  0  0  0  0  0  0  0  0  0
   28.2800  -20.7900    0.0000 C   0  0  0  0  0  0  0  0  0  0  0  0
   30.7300  -23.5900    0.0000 O   0  0  0  0  0  0  0  0  0  0  0  0
   31.9200  -22.8900    0.0000 C   0  0  0  0  0  0  0  0  0  0  0  0
   31.9200  -21.4900    0.0000 C   0  0  0  0  0  0  0  0  0  0  0  0
   30.7300  -20.7900    0.0000 C   0  0  0  0  0  0  0  0  0  0  0  0
   30.7300  -19.3900    0.0000 C   0  0  0  0  0  0  0  0  0  0  0  0
   29.4700  -18.6900    0.0000 C   0  0  0  0  0  0  0  0  0  0  0  0
   28.2800  -19.3900    0.0000 C   0  0  0  0  0  0  0  0  0  0  0  0
   23.3100  -20.7900    0.0000 O   0  0  0  0  0  0  0  0  0  0  0  0
   22.1200  -21.4900    0.0000 C   0  0  0  0  0  0  0  0  0  0  0  0
   33.1100  -23.5900    0.0000 O   0  0  0  0  0  0  0  0  0  0  0  0
   31.9200  -18.6900    0.0000 C   0  0  0  0  0  0  0  0  0  0  0  0
   25.8300  -19.3900    0.0000 O   0  0  0  0  0  0  0  0  0  0  0  0
   27.0200  -20.1600    0.0000 C   0  0  0  0  0  0  0  0  0  0  0  0
   29.4700  -20.2300    0.0000 C   0  0  0  0  0  0  0  0  0  0  0  0
   25.8300  -25.0600    0.0000 C   0  0  0  0  0  0  0  0  0  0  0  0
   29.4700  -17.2900    0.0000 O   0  0  0  0  0  0  0  0  0  0  0  0
   27.2300  -18.4100    0.0000 O   0  0  0  0  0  0  0  0  0  0  0  0
   31.9453  -20.0851    0.0000 O   0  0  0  0  0  0  0  0  0  0  0  0
   37.4785  -23.0816    0.0000 C   0  0  0  0  0  0  0  0  0  0  0  0
   36.2234  -22.3844    0.0000 C   0  0  0  0  0  0  0  0  0  0  0  0
   38.6639  -22.4540    0.0000 C   0  0  0  0  0  0  0  0  0  0  0  0
   37.4785  -24.4762    0.0000 C   0  0  0  0  0  0  0  0  0  0  0  0
   37.4785  -21.7568    0.0000 C   0  0  0  0  0  0  0  0  0  0  0  0
   35.0381  -23.0816    0.0000 C   0  0  0  0  0  0  0  0  0  0  0  0
   36.2234  -20.9898    0.0000 C   0  0  0  0  0  0  0  0  0  0  0  0
   38.6639  -21.0595    0.0000 C   0  0  0  0  0  0  0  0  0  0  0  0
   39.8493  -23.1514    0.0000 C   0  0  0  0  0  0  0  0  0  0  0  0
   36.2234  -25.1735    0.0000 C   0  0  0  0  0  0  0  0  0  0  0  0
   38.6639  -25.1735    0.0000 O   0  0  0  0  0  0  0  0  0  0  0  0
   35.0381  -24.4762    0.0000 C   0  0  0  0  0  0  0  0  0  0  0  0
   33.8527  -22.3844    0.0000 C   0  0  0  0  0  0  0  0  0  0  0  0
   35.0381  -21.6871    0.0000 C   0  0  0  0  0  0  0  0  0  0  0  0
   37.4785  -20.2925    0.0000 C   0  0  0  0  0  0  0  0  0  0  0  0
   39.8493  -24.5459    0.0000 C   0  0  0  0  0  0  0  0  0  0  0  0
   33.8527  -25.1735    0.0000 C   0  0  0  0  0  0  0  0  0  0  0  0
   32.5976  -23.0816    0.0000 C   0  0  0  0  0  0  0  0  0  0  0  0
   33.8527  -20.9898    0.0000 O   0  0  0  0  0  0  0  0  0  0  0  0
   41.1045  -25.2431    0.0000 O   0  0  0  0  0  0  0  0  0  0  0  0
   32.5976  -24.4762    0.0000 C   0  0  0  0  0  0  0  0  0  0  0  0
   33.8527  -26.5681    0.0000 C   0  0  0  0  0  0  0  0  0  0  0  0
   31.3956  -22.3744    0.0000 O   0  0  0  0  0  0  0  0  0  0  0  0
   30.1907  -23.0570    0.0000 C   0  0  0  0  0  0  0  0  0  0  0  0
   35.2307  -19.6550    0.0000 O   0  0  0  0  0  0  0  0  0  0  0  0
   39.8890  -20.3931    0.0000 C   0  0  0  0  0  0  0  0  0  0  0  0
   41.0862  -21.1256    0.0000 C   0  0  0  0  0  0  0  0  0  0  0  0
   41.5435  -22.4528    0.0000 C   0  0  0  0  0  0  0  0  0  0  0  0
   42.9427  -22.4263    0.0000 O   0  0  0  0  0  0  0  0  0  0  0  0
   43.3498  -21.0874    0.0000 C   0  0  0  0  0  0  0  0  0  0  0  0
   42.2022  -20.2864    0.0000 C   0  0  0  0  0  0  0  0  0  0  0  0
   39.9245  -18.9677    0.0000 O   0  0  0  0  0  0  0  0  0  0  0  0
   44.6635  -20.6329    0.0000 O   0  0  0  0  0  0  0  0  0  0  0  0
   38.6639  -19.6598    0.0000 C   0  0  0  0  0  0  0  0  0  0  0  0
   28.4200  -22.6800    0.0000 C   0  0  0  0  0  0  0  0  0  0  0  0
   27.2300  -21.9800    0.0000 C   0  0  0  0  0  0  0  0  0  0  0  0
   29.6100  -22.0500    0.0000 C   0  0  0  0  0  0  0  0  0  0  0  0
   28.4200  -24.0800    0.0000 C   0  0  0  0  0  0  0  0  0  0  0  0
   28.4200  -21.7700    0.0000 C   0  0  0  0  0  0  0  0  0  0  0  0
   26.0400  -22.6800    0.0000 C   0  0  0  0  0  0  0  0  0  0  0  0
   27.2300  -20.5800    0.0000 C   0  0  0  0  0  0  0  0  0  0  0  0
   29.6100  -20.6500    0.0000 C   0  0  0  0  0  0  0  0  0  0  0  0
   30.8000  -22.7500    0.0000 C   0  0  0  0  0  0  0  0  0  0  0  0
   27.2300  -24.7800    0.0000 C   0  0  0  0  0  0  0  0  0  0  0  0
   29.6100  -24.7800    0.0000 O   0  0  0  0  0  0  0  0  0  0  0  0
   26.0400  -24.0800    0.0000 C   0  0  0  0  0  0  0  0  0  0  0  0
   24.8500  -21.9800    0.0000 C   0  0  0  0  0  0  0  0  0  0  0  0
   26.0400  -21.2800    0.0000 C   0  0  0  0  0  0  0  0  0  0  0  0
   28.4200  -19.8800    0.0000 C   0  0  0  0  0  0  0  0  0  0  0  0
   30.8000  -24.1500    0.0000 C   0  0  0  0  0  0  0  0  0  0  0  0
   24.8500  -24.7800    0.0000 C   0  0  0  0  0  0  0  0  0  0  0  0
   23.5900  -22.6800    0.0000 C   0  0  0  0  0  0  0  0  0  0  0  0
   24.8500  -20.5800    0.0000 O   0  0  0  0  0  0  0  0  0  0  0  0
   32.0600  -24.8500    0.0000 O   0  0  0  0  0  0  0  0  0  0  0  0
   23.5900  -24.0800    0.0000 C   0  0  0  0  0  0  0  0  0  0  0  0
   24.8500  -26.1800    0.0000 C   0  0  0  0  0  0  0  0  0  0  0  0
   22.3834  -21.9700    0.0000 O   0  0  0  0  0  0  0  0  0  0  0  0
   26.2947  -19.3949    0.0000 O   0  0  0  0  0  0  0  0  0  0  0  0
   28.4498  -18.4803    0.0000 O   0  0  0  0  0  0  0  0  0  0  0  0
   29.6539  -17.8186    0.0000 C   0  0  0  0  0  0  0  0  0  0  0  0
   30.8398  -19.9810    0.0000 C   0  0  0  0  0  0  0  0  0  0  0  0
   28.8167  -22.2192    0.0000 C   0  0  0  0  0  0  0  0  0  0  0  0
   27.6094  -21.5077    0.0000 C   0  0  0  0  0  0  0  0  0  0  0  0
   30.0354  -21.5251    0.0000 C   0  0  0  0  0  0  0  0  0  0  0  0
   28.8108  -23.6130    0.0000 C   0  0  0  0  0  0  0  0  0  0  0  0
   28.8050  -20.8778    0.0000 C   0  0  0  0  0  0  0  0  0  0  0  0
   26.3905  -22.2075    0.0000 C   0  0  0  0  0  0  0  0  0  0  0  0
   27.5511  -20.1079    0.0000 C   0  0  0  0  0  0  0  0  0  0  0  0
   30.0471  -20.1255    0.0000 C   0  0  0  0  0  0  0  0  0  0  0  0
   31.2486  -22.2366    0.0000 C   0  0  0  0  0  0  0  0  0  0  0  0
   27.5978  -24.3128    0.0000 C   0  0  0  0  0  0  0  0  0  0  0  0
   30.0180  -24.3187    0.0000 O   0  0  0  0  0  0  0  0  0  0  0  0
   26.3846  -23.6072    0.0000 C   0  0  0  0  0  0  0  0  0  0  0  0
   25.1833  -21.5019    0.0000 C   0  0  0  0  0  0  0  0  0  0  0  0
   26.3789  -20.8021    0.0000 C   0  0  0  0  0  0  0  0  0  0  0  0
   28.8399  -19.4198    0.0000 C   0  0  0  0  0  0  0  0  0  0  0  0
   27.6152  -18.7025    0.0000 O   0  0  0  0  0  0  0  0  0  0  0  0
   31.2660  -19.4374    0.0000 C   0  0  0  0  0  0  0  0  0  0  0  0
   31.2369  -23.6363    0.0000 C   0  0  0  0  0  0  0  0  0  0  0  0
   25.1833  -24.3071    0.0000 C   0  0  0  0  0  0  0  0  0  0  0  0
   23.9701  -22.2075    0.0000 C   0  0  0  0  0  0  0  0  0  0  0  0
   25.1833  -20.0963    0.0000 O   0  0  0  0  0  0  0  0  0  0  0  0
   28.8515  -18.0201    0.0000 O   0  0  0  0  0  0  0  0  0  0  0  0
   26.4022  -18.0026    0.0000 C   0  0  0  0  0  0  0  0  0  0  0  0
   32.4442  -24.3421    0.0000 O   0  0  0  0  0  0  0  0  0  0  0  0
   23.9701  -23.6072    0.0000 C   0  0  0  0  0  0  0  0  0  0  0  0
   25.1833  -25.7068    0.0000 C   0  0  0  0  0  0  0  0  0  0  0  0
   22.7571  -21.5019    0.0000 O   0  0  0  0  0  0  0  0  0  0  0  0
   30.0704  -17.3261    0.0000 C   0  0  0  0  0  0  0  0  0  0  0  0
   25.1890  -18.7025    0.0000 C   0  0  0  0  0  0  0  0  0  0  0  0
   26.4022  -16.6029    0.0000 O   0  0  0  0  0  0  0  0  0  0  0  0
   29.4324  -21.4783    0.0000 C   0  0  0  0  0  0  0  0  0  0  0  0
   28.2468  -20.7809    0.0000 C   0  0  0  0  0  0  0  0  0  0  0  0
   30.6877  -20.8507    0.0000 C   0  0  0  0  0  0  0  0  0  0  0  0
   29.4324  -22.9428    0.0000 C   0  0  0  0  0  0  0  0  0  0  0  0
   29.4324  -20.1533    0.0000 C   0  0  0  0  0  0  0  0  0  0  0  0
   27.0613  -21.4783    0.0000 C   0  0  0  0  0  0  0  0  0  0  0  0
   28.2468  -19.3862    0.0000 C   0  0  0  0  0  0  0  0  0  0  0  0
   30.6877  -19.4559    0.0000 C   0  0  0  0  0  0  0  0  0  0  0  0
   31.8732  -21.5481    0.0000 C   0  0  0  0  0  0  0  0  0  0  0  0
   28.2468  -23.6402    0.0000 C   0  0  0  0  0  0  0  0  0  0  0  0
   30.6877  -23.6402    0.0000 O   0  0  0  0  0  0  0  0  0  0  0  0
   27.0613  -22.9428    0.0000 C   0  0  0  0  0  0  0  0  0  0  0  0
   25.8757  -20.7809    0.0000 C   0  0  0  0  0  0  0  0  0  0  0  0
   27.0613  -20.2235    0.0000 C   0  0  0  0  0  0  0  0  0  0  0  0
   29.4324  -18.6888    0.0000 C   0  0  0  0  0  0  0  0  0  0  0  0
   31.8732  -23.0126    0.0000 C   0  0  0  0  0  0  0  0  0  0  0  0
   25.8757  -23.6402    0.0000 C   0  0  0  0  0  0  0  0  0  0  0  0
   24.5507  -21.4783    0.0000 C   0  0  0  0  0  0  0  0  0  0  0  0
   25.8757  -19.3862    0.0000 O   0  0  0  0  0  0  0  0  0  0  0  0
   33.1285  -23.7099    0.0000 O   0  0  0  0  0  0  0  0  0  0  0  0
   24.5507  -22.9428    0.0000 C   0  0  0  0  0  0  0  0  0  0  0  0
   25.8757  -25.0350    0.0000 C   0  0  0  0  0  0  0  0  0  0  0  0
   23.3652  -20.7809    0.0000 O   0  0  0  0  0  0  0  0  0  0  0  0
   31.8732  -18.7585    0.0000 C   0  0  0  0  0  0  0  0  0  0  0  0
   22.1516  -21.4684    0.0000 C   0  0  0  0  0  0  0  0  0  0  0  0
   29.1355  -17.3457    0.0000 O   0  0  0  0  0  0  0  0  0  0  0  0
   27.7664  -17.2131    0.0000 C   0  0  0  0  0  0  0  0  0  0  0  0
   27.2172  -18.4741    0.0000 O   0  0  0  0  0  0  0  0  0  0  0  0
   29.4000  -21.4900    0.0000 C   0  0  0  0  0  0  0  0  0  0  0  0
   28.2100  -20.7900    0.0000 C   0  0  0  0  0  0  0  0  0  0  0  0
   30.6600  -20.8600    0.0000 C   0  0  0  0  0  0  0  0  0  0  0  0
   29.4000  -22.9600    0.0000 C   0  0  0  0  0  0  0  0  0  0  0  0
   29.4000  -20.1600    0.0000 C   0  0  0  0  0  0  0  0  0  0  0  0
   27.0200  -21.4900    0.0000 C   0  0  0  0  0  0  0  0  0  0  0  0
   28.2100  -19.3900    0.0000 C   0  0  0  0  0  0  0  0  0  0  0  0
   30.6600  -19.4600    0.0000 C   0  0  0  0  0  0  0  0  0  0  0  0
   31.8500  -21.5600    0.0000 C   0  0  0  0  0  0  0  0  0  0  0  0
   28.2100  -23.6600    0.0000 C   0  0  0  0  0  0  0  0  0  0  0  0
   30.6600  -23.6600    0.0000 O   0  0  0  0  0  0  0  0  0  0  0  0
   27.0200  -22.9600    0.0000 C   0  0  0  0  0  0  0  0  0  0  0  0
   25.8300  -20.7900    0.0000 C   0  0  0  0  0  0  0  0  0  0  0  0
   27.0200  -20.2300    0.0000 C   0  0  0  0  0  0  0  0  0  0  0  0
   29.4000  -18.6900    0.0000 C   0  0  0  0  0  0  0  0  0  0  0  0
   31.8500  -23.0300    0.0000 C   0  0  0  0  0  0  0  0  0  0  0  0
   25.8300  -23.6600    0.0000 C   0  0  0  0  0  0  0  0  0  0  0  0
   24.5000  -21.4900    0.0000 C   0  0  0  0  0  0  0  0  0  0  0  0
   25.8300  -19.3900    0.0000 O   0  0  0  0  0  0  0  0  0  0  0  0
   33.1100  -23.7300    0.0000 O   0  0  0  0  0  0  0  0  0  0  0  0
   24.5000  -22.9600    0.0000 C   0  0  0  0  0  0  0  0  0  0  0  0
   25.8300  -25.0600    0.0000 C   0  0  0  0  0  0  0  0  0  0  0  0
   30.6600  -22.1900    0.0000 O   0  0  0  0  0  0  0  0  0  0  0  0
   23.3100  -20.7900    0.0000 O   0  0  0  0  0  0  0  0  0  0  0  0
   31.8500  -18.7600    0.0000 C   0  0  0  0  0  0  0  0  0  0  0  0
   22.0500  -21.4900    0.0000 C   0  0  0  0  0  0  0  0  0  0  0  0
   29.0500  -17.2900    0.0000 O   0  0  0  0  0  0  0  0  0  0  0  0
   27.7200  -17.2200    0.0000 C   0  0  0  0  0  0  0  0  0  0  0  0
   27.1600  -18.4800    0.0000 O   0  0  0  0  0  0  0  0  0  0  0  0
   29.4000  -21.4900    0.0000 C   0  0  0  0  0  0  0  0  0  0  0  0
   28.2100  -20.7900    0.0000 C   0  0  0  0  0  0  0  0  0  0  0  0
   30.6600  -20.8600    0.0000 C   0  0  0  0  0  0  0  0  0  0  0  0
   29.4000  -22.9600    0.0000 C   0  0  0  0  0  0  0  0  0  0  0  0
   29.4000  -20.1600    0.0000 C   0  0  0  0  0  0  0  0  0  0  0  0
   27.0200  -21.4900    0.0000 C   0  0  0  0  0  0  0  0  0  0  0  0
   28.2100  -19.3900    0.0000 C   0  0  0  0  0  0  0  0  0  0  0  0
   30.6600  -19.4600    0.0000 C   0  0  0  0  0  0  0  0  0  0  0  0
   31.8500  -21.5600    0.0000 C   0  0  0  0  0  0  0  0  0  0  0  0
   28.2100  -23.6600    0.0000 C   0  0  0  0  0  0  0  0  0  0  0  0
   30.6600  -23.6600    0.0000 O   0  0  0  0  0  0  0  0  0  0  0  0
   27.0200  -22.9600    0.0000 C   0  0  0  0  0  0  0  0  0  0  0  0
   25.8300  -20.7900    0.0000 C   0  0  0  0  0  0  0  0  0  0  0  0
   27.0200  -20.3000    0.0000 C   0  0  0  0  0  0  0  0  0  0  0  0
   29.4000  -18.6900    0.0000 C   0  0  0  0  0  0  0  0  0  0  0  0
   31.8500  -23.0300    0.0000 C   0  0  0  0  0  0  0  0  0  0  0  0
   25.8300  -23.6600    0.0000 C   0  0  0  0  0  0  0  0  0  0  0  0
   24.5000  -21.4900    0.0000 C   0  0  0  0  0  0  0  0  0  0  0  0
   25.8300  -19.3900    0.0000 O   0  0  0  0  0  0  0  0  0  0  0  0
   33.1100  -23.7300    0.0000 O   0  0  0  0  0  0  0  0  0  0  0  0
   24.5000  -22.9600    0.0000 C   0  0  0  0  0  0  0  0  0  0  0  0
   25.8300  -25.0600    0.0000 C   0  0  0  0  0  0  0  0  0  0  0  0
   30.6600  -22.1900    0.0000 O   0  0  0  0  0  0  0  0  0  0  0  0
   23.3100  -20.7900    0.0000 O   0  0  0  0  0  0  0  0  0  0  0  0
   31.8500  -18.7600    0.0000 C   0  0  0  0  0  0  0  0  0  0  0  0
   22.0500  -21.4900    0.0000 C   0  0  0  0  0  0  0  0  0  0  0  0
   29.0500  -17.2900    0.0000 O   0  0  0  0  0  0  0  0  0  0  0  0
   27.7200  -17.2200    0.0000 C   0  0  0  0  0  0  0  0  0  0  0  0
   27.1600  -18.4800    0.0000 O   0  0  0  0  0  0  0  0  0  0  0  0
   31.8753  -20.1551    0.0000 O   0  0  0  0  0  0  0  0  0  0  0  0
   28.8039  -21.8325    0.0000 C   0  0  0  0  0  0  0  0  0  0  0  0
   27.6182  -21.1350    0.0000 C   0  0  0  0  0  0  0  0  0  0  0  0
   30.0594  -21.2047    0.0000 C   0  0  0  0  0  0  0  0  0  0  0  0
   28.8039  -23.2972    0.0000 C   0  0  0  0  0  0  0  0  0  0  0  0
   28.8039  -20.9273    0.0000 C   0  0  0  0  0  0  0  0  0  0  0  0
   26.4325  -21.8325    0.0000 C   0  0  0  0  0  0  0  0  0  0  0  0
   27.6182  -19.7400    0.0000 C   0  0  0  0  0  0  0  0  0  0  0  0
   30.0594  -19.8098    0.0000 C   0  0  0  0  0  0  0  0  0  0  0  0
   31.2451  -21.9022    0.0000 C   0  0  0  0  0  0  0  0  0  0  0  0
   27.6182  -23.9946    0.0000 C   0  0  0  0  0  0  0  0  0  0  0  0
   30.0594  -23.9946    0.0000 O   0  0  0  0  0  0  0  0  0  0  0  0
   26.4325  -23.2972    0.0000 C   0  0  0  0  0  0  0  0  0  0  0  0
   25.2468  -21.1350    0.0000 C   0  0  0  0  0  0  0  0  0  0  0  0
   26.4325  -20.5073    0.0000 C   0  0  0  0  0  0  0  0  0  0  0  0
   28.8039  -19.0426    0.0000 C   0  0  0  0  0  0  0  0  0  0  0  0
   31.2451  -23.3669    0.0000 C   0  0  0  0  0  0  0  0  0  0  0  0
   25.2468  -23.9946    0.0000 C   0  0  0  0  0  0  0  0  0  0  0  0
   23.9216  -21.8325    0.0000 C   0  0  0  0  0  0  0  0  0  0  0  0
   25.2468  -19.7400    0.0000 O   0  0  0  0  0  0  0  0  0  0  0  0
   32.5005  -24.0644    0.0000 O   0  0  0  0  0  0  0  0  0  0  0  0
   23.9216  -23.2972    0.0000 C   0  0  0  0  0  0  0  0  0  0  0  0
   25.2468  -25.3896    0.0000 C   0  0  0  0  0  0  0  0  0  0  0  0
   30.0594  -22.5299    0.0000 O   0  0  0  0  0  0  0  0  0  0  0  0
   22.7359  -21.1350    0.0000 O   0  0  0  0  0  0  0  0  0  0  0  0
   31.2451  -19.1123    0.0000 C   0  0  0  0  0  0  0  0  0  0  0  0
   26.6417  -18.7636    0.0000 O   0  0  0  0  0  0  0  0  0  0  0  0
   28.8157  -17.6476    0.0000 O   0  0  0  0  0  0  0  0  0  0  0  0
   30.0206  -16.9654    0.0000 C   0  0  0  0  0  0  0  0  0  0  0  0
   26.0342  -15.6101    0.0000 C   0  0  0  0  0  0  0  0  0  0  0  0
   27.2357  -16.3158    0.0000 C   0  0  0  0  0  0  0  0  0  0  0  0
   24.7452  -16.2984    0.0000 C   0  0  0  0  0  0  0  0  0  0  0  0
   26.0459  -14.2102    0.0000 C   0  0  0  0  0  0  0  0  0  0  0  0
   28.4548  -15.6275    0.0000 C   0  0  0  0  0  0  0  0  0  0  0  0
   27.2299  -17.7098    0.0000 C   0  0  0  0  0  0  0  0  0  0  0  0
   27.8483  -14.9042    0.0000 C   0  0  0  0  0  0  0  0  0  0  0  0
   24.8092  -17.7040    0.0000 C   0  0  0  0  0  0  0  0  0  0  0  0
   23.6018  -15.6042    0.0000 C   0  0  0  0  0  0  0  0  0  0  0  0
   24.8035  -15.1085    0.0000 C   0  0  0  0  0  0  0  0  0  0  0  0
   27.2590  -13.5160    0.0000 C   0  0  0  0  0  0  0  0  0  0  0  0
   24.8385  -13.0727    0.0000 O   0  0  0  0  0  0  0  0  0  0  0  0
   28.3907  -14.2276    0.0000 C   0  0  0  0  0  0  0  0  0  0  0  0
   29.6622  -16.3332    0.0000 C   0  0  0  0  0  0  0  0  0  0  0  0
   26.0225  -18.4156    0.0000 C   0  0  0  0  0  0  0  0  0  0  0  0
   28.4314  -18.4214    0.0000 O   0  0  0  0  0  0  0  0  0  0  0  0
   23.6018  -18.4097    0.0000 C   0  0  0  0  0  0  0  0  0  0  0  0
   22.3887  -16.2984    0.0000 C   0  0  0  0  0  0  0  0  0  0  0  0
   23.5902  -14.1985    0.0000 O   0  0  0  0  0  0  0  0  0  0  0  0
   27.2707  -12.1161    0.0000 O   0  0  0  0  0  0  0  0  0  0  0  0
   29.4522  -13.0203    0.0000 C   0  0  0  0  0  0  0  0  0  0  0  0
   29.8663  -14.5776    0.0000 O   0  0  0  0  0  0  0  0  0  0  0  0
   29.6505  -17.7331    0.0000 C   0  0  0  0  0  0  0  0  0  0  0  0
   22.3887  -17.7040    0.0000 C   0  0  0  0  0  0  0  0  0  0  0  0
   23.5902  -19.8096    0.0000 C   0  0  0  0  0  0  0  0  0  0  0  0
   21.1696  -15.6042    0.0000 O   0  0  0  0  0  0  0  0  0  0  0  0
   28.4898  -11.4278    0.0000 C   0  0  0  0  0  0  0  0  0  0  0  0
   30.8636  -18.4447    0.0000 O   0  0  0  0  0  0  0  0  0  0  0  0
   19.9448  -16.2867    0.0000 C   0  0  0  0  0  0  0  0  0  0  0  0
   17.5000  -30.5900    0.0000 C   0  0  0  0  0  0  0  0  0  0  0  0
   17.5000  -31.9900    0.0000 C   0  0  0  0  0  0  0  0  0  0  0  0
   18.7124  -32.6900    0.0000 C   0  0  0  0  0  0  0  0  0  0  0  0
   19.9249  -31.9900    0.0000 C   0  0  0  0  0  0  0  0  0  0  0  0
   19.9249  -30.5900    0.0000 C   0  0  0  0  0  0  0  0  0  0  0  0
   18.7124  -29.8900    0.0000 C   0  0  0  0  0  0  0  0  0  0  0  0
   21.2564  -32.4226    0.0000 N   0  0  0  0  0  0  0  0  0  0  0  0
   22.0093  -31.2900    0.0000 C   0  0  0  0  0  0  0  0  0  0  0  0
   21.2564  -30.1574    0.0000 C   0  0  0  0  0  0  0  0  0  0  0  0
   23.4716  -31.2837    0.0000 C   0  0  0  0  0  0  0  0  0  0  0  0
   24.1110  -29.9347    0.0000 N   0  0  0  0  0  0  0  0  0  0  0  0
   23.3581  -28.9421    0.0000 C   0  0  0  0  0  0  0  0  0  0  0  0
   21.8958  -28.8784    0.0000 C   0  0  0  0  0  0  0  0  0  0  0  0
   21.9658  -33.7016    0.0000 C   0  0  0  0  0  0  0  0  0  0  0  0
   23.2881  -33.6379    0.0000 C   0  0  0  0  0  0  0  0  0  0  0  0
   24.1110  -32.5053    0.0000 C   0  0  0  0  0  0  0  0  0  0  0  0
   21.0227  -34.8067    0.0000 O   0  0  0  0  0  0  0  0  0  0  0  0
   25.4799  -32.4652    0.0000 O   0  0  0  0  0  0  0  0  0  0  0  0
   23.9718  -34.9037    0.0000 O   0  0  0  0  0  0  0  0  0  0  0  0
   25.3399  -34.9432    0.0000 C   0  0  0  0  0  0  0  0  0  0  0  0
   26.2218  -33.6673    0.0000 C   0  0  0  0  0  0  0  0  0  0  0  0
   33.0286  -21.4699    0.0000 C   0  0  0  0  0  0  0  0  0  0  0  0
   33.0286  -22.8690    0.0000 C   0  0  0  0  0  0  0  0  0  0  0  0
   34.2402  -23.5686    0.0000 C   0  0  0  0  0  0  0  0  0  0  0  0
   35.4519  -22.8690    0.0000 C   0  0  0  0  0  0  0  0  0  0  0  0
   35.4519  -21.4699    0.0000 C   0  0  0  0  0  0  0  0  0  0  0  0
   34.2402  -20.7704    0.0000 C   0  0  0  0  0  0  0  0  0  0  0  0
   36.7825  -23.3013    0.0000 N   0  0  0  0  0  0  0  0  0  0  0  0
   37.5349  -22.1695    0.0000 C   0  0  0  0  0  0  0  0  0  0  0  0
   36.7825  -21.0376    0.0000 C   0  0  0  0  0  0  0  0  0  0  0  0
   38.9962  -22.1632    0.0000 C   0  0  0  0  0  0  0  0  0  0  0  0
   39.6352  -20.8151    0.0000 N   0  0  0  0  0  0  0  0  0  0  0  0
   38.8828  -19.8230    0.0000 C   0  0  0  0  0  0  0  0  0  0  0  0
   37.4215  -19.7594    0.0000 C   0  0  0  0  0  0  0  0  0  0  0  0
   37.4914  -24.5795    0.0000 C   0  0  0  0  0  0  0  0  0  0  0  0
   38.8129  -24.5158    0.0000 C   0  0  0  0  0  0  0  0  0  0  0  0
   39.6352  -23.3840    0.0000 C   0  0  0  0  0  0  0  0  0  0  0  0
   36.5490  -25.6839    0.0000 O   0  0  0  0  0  0  0  0  0  0  0  0
   41.0032  -23.3439    0.0000 O   0  0  0  0  0  0  0  0  0  0  0  0
   39.4961  -25.7808    0.0000 O   0  0  0  0  0  0  0  0  0  0  0  0
   41.7446  -24.5452    0.0000 C   0  0  0  0  0  0  0  0  0  0  0  0
   35.7912  -25.9648    0.0000 C   0  0  0  0  0  0  0  0  0  0  0  0
   34.5800  -25.2717    0.0000 C   0  0  0  0  0  0  0  0  0  0  0  0
   35.7855  -27.3683    0.0000 C   0  0  0  0  0  0  0  0  0  0  0  0
   37.0084  -25.2717    0.0000 O   0  0  0  0  0  0  0  0  0  0  0  0
   33.3629  -25.9648    0.0000 C   0  0  0  0  0  0  0  0  0  0  0  0
   34.5857  -23.8683    0.0000 O   0  0  0  0  0  0  0  0  0  0  0  0
   34.5800  -28.0728    0.0000 C   0  0  0  0  0  0  0  0  0  0  0  0
   38.2197  -25.9765    0.0000 C   0  0  0  0  0  0  0  0  0  0  0  0
   33.3629  -27.3683    0.0000 C   0  0  0  0  0  0  0  0  0  0  0  0
   32.1516  -25.2717    0.0000 O   0  0  0  0  0  0  0  0  0  0  0  0
   34.5857  -29.4705    0.0000 O   0  0  0  0  0  0  0  0  0  0  0  0
   30.9403  -25.9648    0.0000 C   0  0  0  0  0  0  0  0  0  0  0  0
  1  2  1  0
  1  3  1  0
  1  4  1  0
  1  5  1  1
  2  6  1  0
  2  7  1  1
  3  8  1  6
  3  9  1  0
  4 10  1  0
  4 11  1  6
  6 12  1  0
  6 13  1  0
  6 14  1  1
  7 15  1  0
  7 16  2  0
  9 17  1  0
 10 18  1  0
 12 19  1  0
 13 20  1  0
 13 21  2  0
 15 22  1  0
 17 23  2  0
 19 24  1  0
 19 25  1  6
 20 26  1  0
 22 27  1  0
 26 28  1  0
 12  8  1  1
 10 15  2  0
 11 17  1  0
 20 24  2  0
 29 30  1  0
 29 31  1  0
 29 32  1  0
 29 33  1  1
 30 34  1  0
 30 35  1  1
 31 36  1  0
 31 37  1  6
 32 38  1  6
 32 39  1  0
 34 40  1  0
 34 41  1  0
 34 42  1  1
 35 43  1  0
 37 44  1  0
 40 45  1  0
 41 46  1  0
 41 47  2  0
 44 48  2  0
 45 49  1  0
 45 50  1  6
 36 43  1  0
 40 38  1  1
 39 44  1  0
 46 49  2  0
 46 51  1  0
 36 52  1  6
 35 53  1  6
 43 54  1  1
 51 55  1  0
 56 57  1  0
 56 58  1  0
 56 59  1  0
 56 60  1  1
 57 61  1  0
 57 62  1  1
 58 63  1  0
 58 64  1  6
 59 65  1  6
 59 66  1  0
 61 67  1  0
 61 68  1  0
 61 69  1  1
 62 70  1  0
 64 71  1  0
 67 72  1  0
 68 73  1  0
 68 74  2  0
 71 75  2  0
 72 76  1  0
 72 77  1  6
 63 70  1  0
 67 65  1  1
 66 71  1  0
 73 76  2  0
 73 78  1  0
 63 79  1  6
 62 80  1  6
 70 81  1  1
 78 82  1  0
 81 83  1  0
 84 85  1  0
 84 86  1  0
 84 87  1  0
 84 88  1  1
 85 89  1  0
 85 90  1  1
 86 91  1  0
 86 92  1  6
 87 93  1  6
 87 94  1  0
 89 95  1  0
 89 96  1  0
 89 97  1  1
 90 98  1  0
 92 99  1  0
 95100  1  0
 96101  1  0
 96102  2  0
 99103  2  0
100104  1  0
100105  1  6
 91 98  1  0
 95 93  1  1
 94 99  1  0
101104  2  0
101106  1  0
 91107  1  6
 90108  1  6
 98109  1  1
106110  1  0
109111  1  0
108112  1  0
112113  2  0
112114  1  0
115116  1  0
115117  1  0
115118  1  0
115119  1  1
116120  1  0
116121  1  1
117122  1  6
117123  1  0
118124  1  0
118125  1  6
120126  1  0
120127  1  0
120128  1  1
121129  1  0
121130  2  0
123131  1  0
124132  1  0
126133  1  0
127134  1  0
127135  2  0
129136  1  0
131137  2  0
133138  1  0
133139  1  6
134140  1  0
136141  1  0
140142  1  0
126122  1  1
124129  2  0
125131  1  0
134138  2  0
143144  1  0
143145  1  0
143146  1  0
143147  1  1
144148  1  0
144149  1  1
145150  1  0
145151  1  6
146152  1  6
146153  1  0
148154  1  0
148155  1  0
148156  1  1
149157  1  0
151158  1  0
154159  1  0
155160  1  0
155161  2  0
158162  2  0
159163  1  0
159164  1  6
150157  1  0
154152  1  1
153158  1  0
160163  2  0
160165  1  0
149166  1  6
157167  1  1
165168  1  0
167169  1  0
166170  1  0
170171  2  0
170172  1  0
150173  1  6
150174  1  0
175176  1  0
175177  1  0
175178  1  0
175179  1  1
176180  1  0
176181  1  1
177182  1  0
177183  1  6
178184  1  6
178185  1  0
180186  1  0
180187  1  0
180188  1  1
181189  1  0
183190  1  0
186191  1  0
187192  1  0
187193  2  0
190194  2  0
191195  1  0
191196  1  6
182189  1  0
186184  1  1
185190  1  0
192195  2  0
192197  1  0
181198  1  6
189199  1  1
197200  1  0
199201  1  0
182202  1  6
182203  1  0
204205  1  0
204206  1  0
204207  1  0
204208  1  1
205209  1  0
205210  1  1
206211  1  0
206212  1  0
207213  1  6
207214  1  0
209215  1  0
209216  1  0
209217  1  1
210218  1  0
212219  1  0
215220  1  0
216221  1  0
216222  2  0
219223  2  0
220224  1  0
220225  1  6
211218  1  0
215213  1  1
214219  1  0
221224  2  0
206226  1  1
221227  1  0
210228  1  6
218229  1  1
227230  1  0
229231  1  0
211232  1  6
211233  1  0
234235  2  0
235236  1  0
236237  1  0
237238  1  0
238239  1  0
234239  1  0
237240  1  1
241240  1  6
241242  1  0
242243  1  0
238243  1  0
241244  1  0
244245  1  0
245246  1  0
246247  2  0
242247  1  0
247248  1  0
248249  1  0
249250  1  0
243250  1  1
234251  1  0
251252  1  0
245253  2  0
248254  1  6
248255  1  0
249256  1  1
250257  1  6
239258  2  0
238259  1  1
256260  1  0
242261  1  1
236262  1  6
263264  2  0
264265  1  0
265266  1  0
266267  1  0
267268  1  0
263268  1  0
266269  1  1
270269  1  6
270271  1  0
271272  1  0
267272  1  0
270273  1  0
273274  1  0
274275  1  0
275276  1  0
271276  1  0
276277  1  0
277278  1  0
278279  1  0
272279  1  1
263280  1  0
280281  1  0
274282  2  0
277283  1  6
277284  1  0
268285  2  0
267286  1  1
271287  1  1
265288  1  6
278289  1  1
289290  1  0
290291  1  0
279291  1  6
292293  2  0
293294  1  0
294295  1  0
295296  1  0
296297  1  0
292297  1  0
295298  1  1
299298  1  6
299300  1  0
300301  1  0
296301  1  0
299302  1  0
302303  1  0
303304  1  0
304305  1  0
300305  1  0
305306  1  0
306307  1  0
307308  1  0
301308  1  1
292309  1  0
309310  1  0
303311  2  0
306312  1  6
297313  2  0
296314  1  1
300315  1  1
294316  1  6
307317  1  1
308318  1  6
305319  1  1
320321  2  0
321322  1  0
322323  1  0
323324  1  0
324325  1  0
320325  1  0
323326  1  1
327326  1  6
327328  1  0
328329  1  0
324329  1  0
327330  1  0
330331  1  0
331332  1  0
333332  1  6
328333  1  0
333334  1  0
334335  1  0
335336  1  0
329336  1  1
320337  1  0
337338  1  0
331339  2  0
334340  1  6
325341  2  0
324342  1  1
328343  1  1
322344  1  6
335345  1  1
336346  1  6
334347  1  0
348349  1  0
348350  1  0
348351  1  0
348352  1  1
349353  1  0
349354  1  1
350355  1  0
350356  1  6
351357  1  6
351358  1  0
353359  1  0
353360  1  0
353361  1  1
354362  1  0
356363  1  0
359364  1  0
360365  1  0
360366  2  0
363367  2  0
364368  1  0
364369  1  6
355362  1  0
359357  1  1
358363  1  0
365368  2  0
365370  1  0
370371  1  0
354372  1  6
355373  1  0
374373  1  6
374375  1  0
375376  1  0
376377  1  0
377378  1  0
374378  1  0
373379  2  0
377380  2  0
355381  1  6
382383  1  0
382384  1  0
382385  1  0
382386  1  1
383387  1  0
383388  1  1
384389  1  0
384390  1  6
385391  1  6
385392  1  0
387393  1  0
387394  1  0
387395  1  1
388396  1  0
390397  1  0
393398  1  0
394399  1  0
394400  2  0
397401  2  0
398402  1  0
398403  1  6
389396  2  0
393391  1  1
392397  1  0
399402  1  0
399404  1  6
388405  2  0
396406  1  0
406407  1  0
389408  1  0
409410  1  0
409411  1  0
409412  1  0
409413  1  1
410414  1  0
410415  1  1
411416  1  0
411417  1  6
412418  1  6
412419  1  0
414420  1  0
414421  1  0
414422  1  1
415423  1  0
415424  1  6
416425  1  6
417426  1  0
420427  1  0
421428  1  0
421429  2  0
423430  1  1
424431  1  0
426432  2  0
427433  1  0
427434  1  6
428435  1  6
430436  1  0
431437  1  0
431438  2  0
416423  1  0
420418  1  1
419426  1  0
428433  1  0
439440  1  0
439441  1  0
439442  1  0
439443  1  1
440444  1  0
440445  1  1
441446  1  0
441447  1  6
442448  1  6
442449  1  0
444450  1  0
444451  1  0
444452  1  1
445453  1  0
447454  1  0
450455  1  0
451456  1  0
451457  2  0
454458  2  0
455459  1  0
455460  1  6
446453  1  0
450448  1  1
449454  1  0
456459  2  0
456461  1  0
446462  1  0
461463  1  0
453464  1  1
464465  1  0
465466  1  0
445466  1  6
467468  1  0
467469  1  0
467470  1  0
467471  1  1
468472  1  0
468473  1  1
469474  1  0
469475  1  0
470476  1  6
470477  1  0
472478  1  0
472479  1  0
472480  1  1
473481  1  0
475482  1  0
478483  1  0
479484  1  0
479485  2  0
482486  2  0
483487  1  0
483488  1  6
474481  1  0
478476  1  1
477482  1  0
484487  2  0
469489  1  1
484490  1  0
474491  1  6
490492  1  0
481493  1  1
493494  1  0
494495  1  0
473495  1  6
496497  1  0
496498  1  0
496499  1  0
496500  1  1
497501  1  0
497502  1  1
498503  1  0
498504  1  0
499505  1  6
499506  1  0
501507  1  0
501508  1  0
501509  1  1
502510  1  0
504511  1  0
507512  1  0
508513  1  0
508514  2  0
511515  2  0
512516  1  0
512517  1  6
503510  1  0
507505  1  1
506511  1  0
513516  2  0
498518  1  1
513519  1  0
503520  1  6
519521  1  0
510522  1  1
522523  1  0
523524  1  0
502524  1  6
503525  1  0
526527  1  0
526528  1  0
526529  1  0
526530  1  1
527531  1  0
527532  1  1
528533  1  0
528534  1  0
529535  1  6
529536  1  0
531537  1  0
531538  1  0
531539  1  1
532540  1  0
534541  1  0
537542  1  0
538543  1  0
538544  2  0
541545  2  0
542546  1  0
542547  1  6
533540  2  0
537535  1  1
536541  1  0
543546  1  0
528548  1  1
543549  1  6
533550  1  0
532551  2  0
540552  1  0
552553  1  0
554555  1  0
554556  1  0
554557  1  1
555558  1  0
555559  1  0
555560  1  1
556561  1  0
556562  1  0
556563  1  1
557564  1  0
557565  1  6
558566  1  0
558567  1  6
559568  1  6
559569  1  0
561570  1  0
562571  1  0
562572  2  0
564573  1  1
566574  1  6
566575  1  0
567576  1  0
570577  1  0
570578  1  6
571579  1  0
573580  1  0
576581  1  0
579582  1  0
561568  1  1
564566  1  0
569576  1  0
571577  2  0
583584  2  0
584585  1  0
585586  2  0
586587  1  0
587588  2  0
583588  1  0
586589  1  0
589590  1  0
590591  2  0
587591  1  0
590592  1  0
592593  2  0
593594  1  0
594595  2  0
591595  1  0
589596  1  0
596597  1  0
597598  2  0
598592  1  0
596599  2  0
598600  1  0
597601  1  0
601602  1  0
600603  1  0
604605  2  0
605606  1  0
606607  2  0
607608  1  0
608609  2  0
604609  1  0
607610  1  0
610611  1  0
611612  2  0
608612  1  0
611613  1  0
613614  2  0
614615  1  0
615616  2  0
612616  1  0
610617  1  0
617618  1  0
618619  2  0
619613  1  0
617620  2  0
619621  1  0
618622  1  0
621623  1  0
624625  1  0
624626  2  0
624627  1  0
625628  1  0
625629  2  0
626630  1  0
627631  1  0
628632  2  0
628633  1  0
630634  2  0
633635  1  0
630632  1  0
M  END
