 
     RDKit          2D

343376  0  0  1  0  0  0  0  0999 V2000
   33.6776  -24.4196    0.0000 C   0  0  0  0  0  0  0  0  0  0  0  0
   34.8994  -23.7199    0.0000 C   0  0  0  0  0  0  0  0  0  0  0  0
   33.6825  -25.8224    0.0000 C   0  0  0  0  0  0  0  0  0  0  0  0
   36.1130  -24.4178    0.0000 C   0  0  0  0  0  0  0  0  0  0  0  0
   34.8964  -26.5331    0.0000 C   0  0  0  0  0  0  0  0  0  0  0  0
   36.1049  -25.8209    0.0000 C   0  0  0  0  0  0  0  0  0  0  0  0
   37.3347  -23.7125    0.0000 O   0  0  0  0  0  0  0  0  0  0  0  0
   37.3315  -26.5182    0.0000 O   0  0  0  0  0  0  0  0  0  0  0  0
   38.5358  -24.4161    0.0000 C   0  0  0  0  0  0  0  0  0  0  0  0
   38.5346  -25.8134    0.0000 C   0  0  0  0  0  0  0  0  0  0  0  0
   32.4453  -11.0590    0.0000 C   0  0  0  0  0  0  0  0  0  0  0  0
   33.6552  -11.7570    0.0000 O   0  0  0  0  0  0  0  0  0  0  0  0
   32.5070   -9.6555    0.0000 C   0  0  0  0  0  0  0  0  0  0  0  0
   34.8694  -11.0532    0.0000 C   0  0  0  0  0  0  0  0  0  0  0  0
   33.6467   -8.9477    0.0000 C   0  0  0  0  0  0  0  0  0  0  0  0
   31.2336   -8.9531    0.0000 O   0  0  0  0  0  0  0  0  0  0  0  0
   34.8581   -9.6546    0.0000 C   0  0  0  0  0  0  0  0  0  0  0  0
   36.0808  -11.7600    0.0000 C   0  0  0  0  0  0  0  0  0  0  0  0
   33.6399   -7.5530    0.0000 O   0  0  0  0  0  0  0  0  0  0  0  0
   36.0818   -8.9482    0.0000 O   0  0  0  0  0  0  0  0  0  0  0  0
   10.6835  -26.4472    0.0000 C   0  0  0  0  0  0  0  0  0  0  0  0
    9.4869  -25.7268    0.0000 O   0  0  0  0  0  0  0  0  0  0  0  0
   10.6825  -27.8410    0.0000 C   0  0  0  0  0  0  0  0  0  0  0  0
    8.2645  -26.3933    0.0000 C   0  0  0  0  0  0  0  0  0  0  0  0
    9.4491  -28.5144    0.0000 C   0  0  0  0  0  0  0  0  0  0  0  0
   11.8790  -28.5615    0.0000 O   0  0  0  0  0  0  0  0  0  0  0  0
    8.2535  -27.7808    0.0000 C   0  0  0  0  0  0  0  0  0  0  0  0
    7.0660  -25.6647    0.0000 C   0  0  0  0  0  0  0  0  0  0  0  0
    9.4254  -29.9092    0.0000 O   0  0  0  0  0  0  0  0  0  0  0  0
    7.0209  -28.4754    0.0000 O   0  0  0  0  0  0  0  0  0  0  0  0
    7.0869  -24.2747    0.0000 O   0  0  0  0  0  0  0  0  0  0  0  0
   19.1726  -22.9790    0.0000 C   0  0  0  0  0  0  0  0  0  0  0  0
   17.9680  -23.6716    0.0000 C   0  0  0  0  0  0  0  0  0  0  0  0
   19.1913  -21.5824    0.0000 C   0  0  0  0  0  0  0  0  0  0  0  0
   20.3784  -23.6833    0.0000 C   0  0  0  0  0  0  0  0  0  0  0  0
   19.1609  -24.3817    0.0000 C   0  0  0  0  0  0  0  0  0  0  0  0
   16.7692  -22.9602    0.0000 C   0  0  0  0  0  0  0  0  0  0  0  0
   17.9680  -25.0742    0.0000 C   0  0  0  0  0  0  0  0  0  0  0  0
   18.5221  -22.2621    0.0000 C   0  0  0  0  0  0  0  0  0  0  0  0
   20.4088  -20.8969    0.0000 C   0  0  0  0  0  0  0  0  0  0  0  0
   17.9926  -20.8781    0.0000 C   0  0  0  0  0  0  0  0  0  0  0  0
   21.6530  -23.0038    0.0000 C   0  0  0  0  0  0  0  0  0  0  0  0
   20.3784  -25.0742    0.0000 O   0  0  0  0  0  0  0  0  0  0  0  0
   15.5389  -23.6587    0.0000 C   0  0  0  0  0  0  0  0  0  0  0  0
   16.7692  -21.5635    0.0000 C   0  0  0  0  0  0  0  0  0  0  0  0
   16.7504  -25.7597    0.0000 C   0  0  0  0  0  0  0  0  0  0  0  0
   21.6076  -21.6256    0.0000 C   0  0  0  0  0  0  0  0  0  0  0  0
   20.4218  -19.5001    0.0000 C   0  0  0  0  0  0  0  0  0  0  0  0
   15.5329  -25.0554    0.0000 C   0  0  0  0  0  0  0  0  0  0  0  0
   14.3343  -22.9545    0.0000 C   0  0  0  0  0  0  0  0  0  0  0  0
   15.5329  -22.2561    0.0000 C   0  0  0  0  0  0  0  0  0  0  0  0
   22.8134  -22.3183    0.0000 C   0  0  0  0  0  0  0  0  0  0  0  0
   22.8193  -20.9401    0.0000 C   0  0  0  0  0  0  0  0  0  0  0  0
   21.6322  -18.8392    0.0000 C   0  0  0  0  0  0  0  0  0  0  0  0
   14.3343  -25.7597    0.0000 C   0  0  0  0  0  0  0  0  0  0  0  0
   13.1039  -23.6587    0.0000 C   0  0  0  0  0  0  0  0  0  0  0  0
   24.0179  -21.6010    0.0000 O   0  0  0  0  0  0  0  0  0  0  0  0
   22.8005  -23.7208    0.0000 O   0  0  0  0  0  0  0  0  0  0  0  0
   22.8379  -19.5435    0.0000 C   0  0  0  0  0  0  0  0  0  0  0  0
   22.3305  -17.6146    0.0000 C   0  0  0  0  0  0  0  0  0  0  0  0
   20.9178  -17.6829    0.0000 C   0  0  0  0  0  0  0  0  0  0  0  0
   13.1039  -25.0554    0.0000 C   0  0  0  0  0  0  0  0  0  0  0  0
   14.6930  -27.1203    0.0000 C   0  0  0  0  0  0  0  0  0  0  0  0
   13.6173  -26.9843    0.0000 C   0  0  0  0  0  0  0  0  0  0  0  0
   11.8993  -22.9545    0.0000 O   0  0  0  0  0  0  0  0  0  0  0  0
   25.2354  -22.3053    0.0000 C   0  0  0  0  0  0  0  0  0  0  0  0
   11.8993  -25.7597    0.0000 O   0  0  0  0  0  0  0  0  0  0  0  0
   16.0897  -27.1203    0.0000 O   0  0  0  0  0  0  0  0  0  0  0  0
   14.3154  -28.4666    0.0000 O   0  0  0  0  0  0  0  0  0  0  0  0
   26.4470  -21.6198    0.0000 C   0  0  0  0  0  0  0  0  0  0  0  0
   25.2995  -23.7150    0.0000 O   0  0  0  0  0  0  0  0  0  0  0  0
   26.4529  -20.2172    0.0000 O   0  0  0  0  0  0  0  0  0  0  0  0
   27.6704  -22.3183    0.0000 C   0  0  0  0  0  0  0  0  0  0  0  0
   26.4341  -24.4193    0.0000 C   0  0  0  0  0  0  0  0  0  0  0  0
   26.4470  -18.8204    0.0000 C   0  0  0  0  0  0  0  0  0  0  0  0
   27.6516  -23.7208    0.0000 C   0  0  0  0  0  0  0  0  0  0  0  0
   28.8690  -21.3456    0.0000 O   0  0  0  0  0  0  0  0  0  0  0  0
   26.4281  -25.8217    0.0000 C   0  0  0  0  0  0  0  0  0  0  0  0
   27.6516  -18.1091    0.0000 C   0  0  0  0  0  0  0  0  0  0  0  0
   25.2295  -18.1407    0.0000 O   0  0  0  0  0  0  0  0  0  0  0  0
   28.8504  -24.4251    0.0000 O   0  0  0  0  0  0  0  0  0  0  0  0
   27.6399  -16.7065    0.0000 C   0  0  0  0  0  0  0  0  0  0  0  0
   28.8819  -18.8017    0.0000 O   0  0  0  0  0  0  0  0  0  0  0  0
   25.2107  -16.7311    0.0000 C   0  0  0  0  0  0  0  0  0  0  0  0
   26.4281  -16.0082    0.0000 C   0  0  0  0  0  0  0  0  0  0  0  0
   28.8504  -15.9894    0.0000 O   0  0  0  0  0  0  0  0  0  0  0  0
   23.9874  -16.0328    0.0000 C   0  0  0  0  0  0  0  0  0  0  0  0
   26.4095  -14.6115    0.0000 O   0  0  0  0  0  0  0  0  0  0  0  0
   27.6083  -13.9013    0.0000 C   0  0  0  0  0  0  0  0  0  0  0  0
   27.5966  -12.5046    0.0000 C   0  0  0  0  0  0  0  0  0  0  0  0
   28.8329  -14.5868    0.0000 O   0  0  0  0  0  0  0  0  0  0  0  0
   28.8010  -11.7873    0.0000 C   0  0  0  0  0  0  0  0  0  0  0  0
   26.3791  -11.8121    0.0000 O   0  0  0  0  0  0  0  0  0  0  0  0
   30.0373  -13.8698    0.0000 C   0  0  0  0  0  0  0  0  0  0  0  0
   30.0244  -12.4670    0.0000 C   0  0  0  0  0  0  0  0  0  0  0  0
   28.7766  -10.3955    0.0000 O   0  0  0  0  0  0  0  0  0  0  0  0
   31.2360  -11.7629    0.0000 O   0  0  0  0  0  0  0  0  0  0  0  0
   30.0536  -23.7203    0.0000 C   0  0  0  0  0  0  0  0  0  0  0  0
   31.2616  -24.4196    0.0000 C   0  0  0  0  0  0  0  0  0  0  0  0
   32.4696  -23.7203    0.0000 C   0  0  0  0  0  0  0  0  0  0  0  0
   30.0502  -22.3216    0.0000 O   0  0  0  0  0  0  0  0  0  0  0  0
   36.0744  -13.1587    0.0000 O   0  0  0  0  0  0  0  0  0  0  0  0
   34.3000  -28.0000    0.0000 C   0  0  0  0  0  0  0  0  0  0  0  0
   34.3000  -29.4000    0.0000 C   0  0  0  0  0  0  0  0  0  0  0  0
   35.5124  -30.1000    0.0000 C   0  0  0  0  0  0  0  0  0  0  0  0
   36.7249  -29.4000    0.0000 C   0  0  0  0  0  0  0  0  0  0  0  0
   36.7249  -28.0000    0.0000 C   0  0  0  0  0  0  0  0  0  0  0  0
   35.5124  -27.3000    0.0000 O   0  0  0  0  0  0  0  0  0  0  0  0
   35.5241  -16.7828    0.0000 C   0  0  0  0  0  0  0  0  0  0  0  0
   36.7828  -17.4821    0.0000 O   0  0  0  0  0  0  0  0  0  0  0  0
   35.4542  -15.3843    0.0000 C   0  0  0  0  0  0  0  0  0  0  0  0
   37.9716  -16.7828    0.0000 C   0  0  0  0  0  0  0  0  0  0  0  0
   36.7828  -14.6151    0.0000 C   0  0  0  0  0  0  0  0  0  0  0  0
   34.2654  -14.6151    0.0000 O   0  0  0  0  0  0  0  0  0  0  0  0
   37.9716  -15.3843    0.0000 C   0  0  0  0  0  0  0  0  0  0  0  0
   39.1604  -17.4821    0.0000 C   0  0  0  0  0  0  0  0  0  0  0  0
   36.7828  -13.2165    0.0000 O   0  0  0  0  0  0  0  0  0  0  0  0
   39.1604  -14.6151    0.0000 O   0  0  0  0  0  0  0  0  0  0  0  0
   13.6366  -32.2369    0.0000 C   0  0  0  0  0  0  0  0  0  0  0  0
   12.4479  -31.5377    0.0000 O   0  0  0  0  0  0  0  0  0  0  0  0
   13.6366  -33.6355    0.0000 C   0  0  0  0  0  0  0  0  0  0  0  0
   11.1891  -32.1670    0.0000 C   0  0  0  0  0  0  0  0  0  0  0  0
   12.3779  -34.2649    0.0000 C   0  0  0  0  0  0  0  0  0  0  0  0
   14.8254  -34.3348    0.0000 O   0  0  0  0  0  0  0  0  0  0  0  0
   11.1891  -33.5656    0.0000 C   0  0  0  0  0  0  0  0  0  0  0  0
   10.0004  -31.4677    0.0000 C   0  0  0  0  0  0  0  0  0  0  0  0
   12.3779  -35.7334    0.0000 O   0  0  0  0  0  0  0  0  0  0  0  0
    9.9304  -34.2649    0.0000 O   0  0  0  0  0  0  0  0  0  0  0  0
   10.0004  -30.0692    0.0000 O   0  0  0  0  0  0  0  0  0  0  0  0
   22.1679  -28.7405    0.0000 C   0  0  0  0  0  0  0  0  0  0  0  0
   20.9791  -29.4398    0.0000 C   0  0  0  0  0  0  0  0  0  0  0  0
   22.1679  -27.3420    0.0000 C   0  0  0  0  0  0  0  0  0  0  0  0
   23.3566  -29.4398    0.0000 C   0  0  0  0  0  0  0  0  0  0  0  0
   22.1679  -30.1391    0.0000 C   0  0  0  0  0  0  0  0  0  0  0  0
   19.7903  -28.7405    0.0000 C   0  0  0  0  0  0  0  0  0  0  0  0
   20.9791  -30.8384    0.0000 C   0  0  0  0  0  0  0  0  0  0  0  0
   20.9791  -28.6007    0.0000 C   0  0  0  0  0  0  0  0  0  0  0  0
   23.4266  -26.7126    0.0000 C   0  0  0  0  0  0  0  0  0  0  0  0
   20.9791  -26.6427    0.0000 C   0  0  0  0  0  0  0  0  0  0  0  0
   24.5454  -28.8105    0.0000 C   0  0  0  0  0  0  0  0  0  0  0  0
   23.3566  -30.8384    0.0000 O   0  0  0  0  0  0  0  0  0  0  0  0
   18.5316  -29.4398    0.0000 C   0  0  0  0  0  0  0  0  0  0  0  0
   19.7903  -27.3420    0.0000 C   0  0  0  0  0  0  0  0  0  0  0  0
   19.7204  -31.5377    0.0000 C   0  0  0  0  0  0  0  0  0  0  0  0
   24.6154  -27.4119    0.0000 C   0  0  0  0  0  0  0  0  0  0  0  0
   23.4266  -25.2441    0.0000 C   0  0  0  0  0  0  0  0  0  0  0  0
   18.5316  -30.8384    0.0000 C   0  0  0  0  0  0  0  0  0  0  0  0
   17.3428  -28.7405    0.0000 C   0  0  0  0  0  0  0  0  0  0  0  0
   18.5316  -28.0413    0.0000 C   0  0  0  0  0  0  0  0  0  0  0  0
   25.8041  -28.1112    0.0000 C   0  0  0  0  0  0  0  0  0  0  0  0
   25.8041  -26.7126    0.0000 C   0  0  0  0  0  0  0  0  0  0  0  0
   24.6154  -24.5448    0.0000 C   0  0  0  0  0  0  0  0  0  0  0  0
   17.3428  -31.5377    0.0000 C   0  0  0  0  0  0  0  0  0  0  0  0
   16.0841  -29.4398    0.0000 C   0  0  0  0  0  0  0  0  0  0  0  0
   27.0628  -27.4119    0.0000 O   0  0  0  0  0  0  0  0  0  0  0  0
   25.8041  -29.5097    0.0000 O   0  0  0  0  0  0  0  0  0  0  0  0
   25.8041  -25.2441    0.0000 C   0  0  0  0  0  0  0  0  0  0  0  0
   25.2447  -23.3561    0.0000 C   0  0  0  0  0  0  0  0  0  0  0  0
   23.8461  -23.4260    0.0000 C   0  0  0  0  0  0  0  0  0  0  0  0
   16.0841  -30.8384    0.0000 C   0  0  0  0  0  0  0  0  0  0  0  0
   18.1120  -32.7964    0.0000 C   0  0  0  0  0  0  0  0  0  0  0  0
   16.6435  -32.7264    0.0000 C   0  0  0  0  0  0  0  0  0  0  0  0
   14.8254  -28.7405    0.0000 O   0  0  0  0  0  0  0  0  0  0  0  0
   28.3215  -28.1112    0.0000 C   0  0  0  0  0  0  0  0  0  0  0  0
   14.8254  -31.5377    0.0000 O   0  0  0  0  0  0  0  0  0  0  0  0
   19.5106  -32.7964    0.0000 O   0  0  0  0  0  0  0  0  0  0  0  0
   18.1120  -34.1949    0.0000 O   0  0  0  0  0  0  0  0  0  0  0  0
   29.5103  -27.4119    0.0000 C   0  0  0  0  0  0  0  0  0  0  0  0
   28.2516  -29.5097    0.0000 O   0  0  0  0  0  0  0  0  0  0  0  0
   29.5103  -26.0133    0.0000 O   0  0  0  0  0  0  0  0  0  0  0  0
   30.6991  -28.1112    0.0000 C   0  0  0  0  0  0  0  0  0  0  0  0
   29.5103  -30.2090    0.0000 C   0  0  0  0  0  0  0  0  0  0  0  0
   29.5103  -24.5448    0.0000 C   0  0  0  0  0  0  0  0  0  0  0  0
   30.6991  -29.5097    0.0000 C   0  0  0  0  0  0  0  0  0  0  0  0
   32.4479  -26.9919    0.0000 O   0  0  0  0  0  0  0  0  0  0  0  0
   29.5103  -31.6076    0.0000 C   0  0  0  0  0  0  0  0  0  0  0  0
   30.6991  -23.8456    0.0000 C   0  0  0  0  0  0  0  0  0  0  0  0
   28.2516  -23.8456    0.0000 O   0  0  0  0  0  0  0  0  0  0  0  0
   31.8879  -30.2090    0.0000 O   0  0  0  0  0  0  0  0  0  0  0  0
   30.6991  -22.4470    0.0000 C   0  0  0  0  0  0  0  0  0  0  0  0
   31.9578  -24.5448    0.0000 O   0  0  0  0  0  0  0  0  0  0  0  0
   28.2516  -22.4470    0.0000 C   0  0  0  0  0  0  0  0  0  0  0  0
   29.5103  -21.7477    0.0000 C   0  0  0  0  0  0  0  0  0  0  0  0
   31.8879  -21.6778    0.0000 O   0  0  0  0  0  0  0  0  0  0  0  0
   27.0628  -21.7477    0.0000 C   0  0  0  0  0  0  0  0  0  0  0  0
   29.4404  -20.3492    0.0000 O   0  0  0  0  0  0  0  0  0  0  0  0
   30.6292  -19.6499    0.0000 C   0  0  0  0  0  0  0  0  0  0  0  0
   30.6292  -18.2513    0.0000 C   0  0  0  0  0  0  0  0  0  0  0  0
   31.8879  -20.2792    0.0000 O   0  0  0  0  0  0  0  0  0  0  0  0
   31.8180  -17.4821    0.0000 C   0  0  0  0  0  0  0  0  0  0  0  0
   29.4404  -17.5520    0.0000 O   0  0  0  0  0  0  0  0  0  0  0  0
   33.0767  -19.5800    0.0000 C   0  0  0  0  0  0  0  0  0  0  0  0
   33.0767  -18.1814    0.0000 C   0  0  0  0  0  0  0  0  0  0  0  0
   31.8180  -16.1535    0.0000 O   0  0  0  0  0  0  0  0  0  0  0  0
   34.2654  -17.4821    0.0000 O   0  0  0  0  0  0  0  0  0  0  0  0
   39.1604  -18.8807    0.0000 O   0  0  0  0  0  0  0  0  0  0  0  0
   31.8879  -31.9576    0.0000 C   0  0  0  0  0  0  0  0  0  0  0  0
   33.0990  -32.6569    0.0000 C   0  0  0  0  0  0  0  0  0  0  0  0
   30.6767  -32.6569    0.0000 O   0  0  0  0  0  0  0  0  0  0  0  0
   34.3103  -31.9576    0.0000 C   0  0  0  0  0  0  0  0  0  0  0  0
   35.5401  -32.6679    0.0000 C   0  0  0  0  0  0  0  0  0  0  0  0
   35.5397  -34.0553    0.0000 C   0  0  0  0  0  0  0  0  0  0  0  0
   36.7508  -34.7549    0.0000 C   0  0  0  0  0  0  0  0  0  0  0  0
   37.9621  -34.0559    0.0000 C   0  0  0  0  0  0  0  0  0  0  0  0
   37.9625  -32.6686    0.0000 C   0  0  0  0  0  0  0  0  0  0  0  0
   36.7515  -31.9689    0.0000 C   0  0  0  0  0  0  0  0  0  0  0  0
   39.1800  -34.7595    0.0000 O   0  0  0  0  0  0  0  0  0  0  0  0
   40.3787  -34.0678    0.0000 C   0  0  0  0  0  0  0  0  0  0  0  0
   33.0876  -30.1000    0.0000 O   0  0  0  0  0  0  0  0  0  0  0  0
   35.5124  -31.4998    0.0000 O   0  0  0  0  0  0  0  0  0  0  0  0
   37.9560  -27.2890    0.0000 C   0  0  0  0  0  0  0  0  0  0  0  0
   37.9560  -30.1110    0.0000 O   0  0  0  0  0  0  0  0  0  0  0  0
   27.6069  -19.6848    0.0000 C   0  0  0  0  0  0  0  0  0  0  0  0
   27.6069  -21.0716    0.0000 C   0  0  0  0  0  0  0  0  0  0  0  0
   28.7858  -21.6957    0.0000 C   0  0  0  0  0  0  0  0  0  0  0  0
   29.9646  -21.0716    0.0000 C   0  0  0  0  0  0  0  0  0  0  0  0
   29.9646  -19.6848    0.0000 C   0  0  0  0  0  0  0  0  0  0  0  0
   28.7858  -18.9913    0.0000 O   0  0  0  0  0  0  0  0  0  0  0  0
   28.7158   -8.6591    0.0000 C   0  0  0  0  0  0  0  0  0  0  0  0
   30.0341   -9.3526    0.0000 O   0  0  0  0  0  0  0  0  0  0  0  0
   28.7165   -7.2723    0.0000 C   0  0  0  0  0  0  0  0  0  0  0  0
   31.2129   -8.6591    0.0000 C   0  0  0  0  0  0  0  0  0  0  0  0
   30.0341   -6.5095    0.0000 C   0  0  0  0  0  0  0  0  0  0  0  0
   27.5376   -6.5095    0.0000 O   0  0  0  0  0  0  0  0  0  0  0  0
   31.2129   -7.2723    0.0000 C   0  0  0  0  0  0  0  0  0  0  0  0
   32.3917   -9.3526    0.0000 C   0  0  0  0  0  0  0  0  0  0  0  0
   30.0341   -5.1226    0.0000 O   0  0  0  0  0  0  0  0  0  0  0  0
   32.3917   -6.5095    0.0000 O   0  0  0  0  0  0  0  0  0  0  0  0
    7.2893  -23.8455    0.0000 C   0  0  0  0  0  0  0  0  0  0  0  0
    6.1104  -23.1520    0.0000 O   0  0  0  0  0  0  0  0  0  0  0  0
    7.2893  -25.2323    0.0000 C   0  0  0  0  0  0  0  0  0  0  0  0
    4.9316  -23.7760    0.0000 C   0  0  0  0  0  0  0  0  0  0  0  0
    6.0410  -25.7870    0.0000 C   0  0  0  0  0  0  0  0  0  0  0  0
    8.4681  -25.8563    0.0000 O   0  0  0  0  0  0  0  0  0  0  0  0
    4.9316  -25.1629    0.0000 C   0  0  0  0  0  0  0  0  0  0  0  0
    3.7527  -23.0826    0.0000 C   0  0  0  0  0  0  0  0  0  0  0  0
    6.0410  -27.2433    0.0000 O   0  0  0  0  0  0  0  0  0  0  0  0
    3.6833  -25.7870    0.0000 O   0  0  0  0  0  0  0  0  0  0  0  0
    3.7527  -21.6957    0.0000 O   0  0  0  0  0  0  0  0  0  0  0  0
   15.6798  -20.3782    0.0000 C   0  0  0  0  0  0  0  0  0  0  0  0
   14.5010  -21.0716    0.0000 C   0  0  0  0  0  0  0  0  0  0  0  0
   15.6798  -18.9913    0.0000 C   0  0  0  0  0  0  0  0  0  0  0  0
   16.8587  -21.0716    0.0000 C   0  0  0  0  0  0  0  0  0  0  0  0
   15.6798  -21.7651    0.0000 C   0  0  0  0  0  0  0  0  0  0  0  0
   13.3222  -20.3782    0.0000 C   0  0  0  0  0  0  0  0  0  0  0  0
   14.5010  -22.4585    0.0000 C   0  0  0  0  0  0  0  0  0  0  0  0
   14.5010  -20.2395    0.0000 C   0  0  0  0  0  0  0  0  0  0  0  0
   16.9280  -18.3672    0.0000 C   0  0  0  0  0  0  0  0  0  0  0  0
   14.5010  -18.2979    0.0000 C   0  0  0  0  0  0  0  0  0  0  0  0
   18.0375  -20.4476    0.0000 C   0  0  0  0  0  0  0  0  0  0  0  0
   16.8587  -22.4585    0.0000 O   0  0  0  0  0  0  0  0  0  0  0  0
   12.1433  -21.0716    0.0000 C   0  0  0  0  0  0  0  0  0  0  0  0
   13.3222  -18.9913    0.0000 C   0  0  0  0  0  0  0  0  0  0  0  0
   13.2528  -23.1520    0.0000 C   0  0  0  0  0  0  0  0  0  0  0  0
   18.1069  -19.0607    0.0000 C   0  0  0  0  0  0  0  0  0  0  0  0
   16.9280  -16.9803    0.0000 C   0  0  0  0  0  0  0  0  0  0  0  0
   12.1433  -22.4585    0.0000 C   0  0  0  0  0  0  0  0  0  0  0  0
   10.9645  -20.3782    0.0000 C   0  0  0  0  0  0  0  0  0  0  0  0
   12.1433  -19.6848    0.0000 C   0  0  0  0  0  0  0  0  0  0  0  0
   19.2857  -19.7542    0.0000 C   0  0  0  0  0  0  0  0  0  0  0  0
   19.2857  -18.3672    0.0000 C   0  0  0  0  0  0  0  0  0  0  0  0
   18.1069  -16.2869    0.0000 C   0  0  0  0  0  0  0  0  0  0  0  0
   10.9645  -23.1520    0.0000 C   0  0  0  0  0  0  0  0  0  0  0  0
    9.7163  -21.0716    0.0000 C   0  0  0  0  0  0  0  0  0  0  0  0
   20.4646  -19.0607    0.0000 O   0  0  0  0  0  0  0  0  0  0  0  0
   19.2857  -21.1411    0.0000 O   0  0  0  0  0  0  0  0  0  0  0  0
   19.2857  -16.9803    0.0000 C   0  0  0  0  0  0  0  0  0  0  0  0
   18.7309  -15.1081    0.0000 C   0  0  0  0  0  0  0  0  0  0  0  0
   17.3441  -15.1774    0.0000 C   0  0  0  0  0  0  0  0  0  0  0  0
    9.7163  -22.4585    0.0000 C   0  0  0  0  0  0  0  0  0  0  0  0
   11.6579  -24.4002    0.0000 C   0  0  0  0  0  0  0  0  0  0  0  0
   10.2017  -24.4695    0.0000 C   0  0  0  0  0  0  0  0  0  0  0  0
    8.4681  -20.3782    0.0000 O   0  0  0  0  0  0  0  0  0  0  0  0
   21.7127  -19.7542    0.0000 C   0  0  0  0  0  0  0  0  0  0  0  0
    8.4681  -23.1520    0.0000 O   0  0  0  0  0  0  0  0  0  0  0  0
   13.0448  -24.4002    0.0000 O   0  0  0  0  0  0  0  0  0  0  0  0
   11.6579  -25.7177    0.0000 O   0  0  0  0  0  0  0  0  0  0  0  0
   22.8916  -19.0607    0.0000 C   0  0  0  0  0  0  0  0  0  0  0  0
   21.7134  -21.1411    0.0000 O   0  0  0  0  0  0  0  0  0  0  0  0
   22.8916  -17.7432    0.0000 O   0  0  0  0  0  0  0  0  0  0  0  0
   24.0704  -19.7542    0.0000 C   0  0  0  0  0  0  0  0  0  0  0  0
   22.8916  -21.8345    0.0000 C   0  0  0  0  0  0  0  0  0  0  0  0
   22.8916  -16.2869    0.0000 C   0  0  0  0  0  0  0  0  0  0  0  0
   24.0704  -21.1411    0.0000 C   0  0  0  0  0  0  0  0  0  0  0  0
   25.8040  -18.7834    0.0000 O   0  0  0  0  0  0  0  0  0  0  0  0
   22.8916  -23.2214    0.0000 C   0  0  0  0  0  0  0  0  0  0  0  0
   24.0704  -15.5935    0.0000 C   0  0  0  0  0  0  0  0  0  0  0  0
   21.6434  -15.5935    0.0000 O   0  0  0  0  0  0  0  0  0  0  0  0
   25.2493  -21.8345    0.0000 O   0  0  0  0  0  0  0  0  0  0  0  0
   24.0704  -14.2066    0.0000 C   0  0  0  0  0  0  0  0  0  0  0  0
   25.3187  -16.2869    0.0000 O   0  0  0  0  0  0  0  0  0  0  0  0
   21.6434  -14.2066    0.0000 C   0  0  0  0  0  0  0  0  0  0  0  0
   22.8916  -13.5132    0.0000 C   0  0  0  0  0  0  0  0  0  0  0  0
   25.9428  -13.1665    0.0000 O   0  0  0  0  0  0  0  0  0  0  0  0
   20.4646  -13.5132    0.0000 C   0  0  0  0  0  0  0  0  0  0  0  0
   22.8916  -12.1263    0.0000 O   0  0  0  0  0  0  0  0  0  0  0  0
   24.0011  -11.4329    0.0000 C   0  0  0  0  0  0  0  0  0  0  0  0
   24.0011  -10.1153    0.0000 C   0  0  0  0  0  0  0  0  0  0  0  0
   25.2493  -12.0570    0.0000 O   0  0  0  0  0  0  0  0  0  0  0  0
   25.1799   -9.3526    0.0000 C   0  0  0  0  0  0  0  0  0  0  0  0
   22.8222   -9.4219    0.0000 O   0  0  0  0  0  0  0  0  0  0  0  0
   26.4281  -11.3635    0.0000 C   0  0  0  0  0  0  0  0  0  0  0  0
   26.4281  -10.0460    0.0000 C   0  0  0  0  0  0  0  0  0  0  0  0
   25.1799   -8.0350    0.0000 O   0  0  0  0  0  0  0  0  0  0  0  0
   27.5376   -9.3526    0.0000 O   0  0  0  0  0  0  0  0  0  0  0  0
   32.3917  -10.6701    0.0000 O   0  0  0  0  0  0  0  0  0  0  0  0
   25.2493  -23.5681    0.0000 C   0  0  0  0  0  0  0  0  0  0  0  0
   26.4281  -24.2615    0.0000 C   0  0  0  0  0  0  0  0  0  0  0  0
   24.0704  -24.2615    0.0000 O   0  0  0  0  0  0  0  0  0  0  0  0
   27.6069  -23.5681    0.0000 C   0  0  0  0  0  0  0  0  0  0  0  0
   28.8552  -24.2615    0.0000 C   0  0  0  0  0  0  0  0  0  0  0  0
   28.7858  -25.5791    0.0000 C   0  0  0  0  0  0  0  0  0  0  0  0
   30.0341  -26.2725    0.0000 C   0  0  0  0  0  0  0  0  0  0  0  0
   31.2129  -25.5791    0.0000 C   0  0  0  0  0  0  0  0  0  0  0  0
   31.2129  -24.2615    0.0000 C   0  0  0  0  0  0  0  0  0  0  0  0
   30.0341  -23.5681    0.0000 C   0  0  0  0  0  0  0  0  0  0  0  0
   32.3917  -26.2725    0.0000 O   0  0  0  0  0  0  0  0  0  0  0  0
   33.5706  -25.6484    0.0000 C   0  0  0  0  0  0  0  0  0  0  0  0
   26.4281  -21.6957    0.0000 O   0  0  0  0  0  0  0  0  0  0  0  0
   28.7858  -23.0826    0.0000 O   0  0  0  0  0  0  0  0  0  0  0  0
   31.2129  -18.9913    0.0000 C   0  0  0  0  0  0  0  0  0  0  0  0
   31.2129  -21.7651    0.0000 O   0  0  0  0  0  0  0  0  0  0  0  0
   27.9537  -14.1373    0.0000 C   0  0  0  0  0  0  0  0  0  0  0  0
   27.9537  -15.5242    0.0000 C   0  0  0  0  0  0  0  0  0  0  0  0
   29.1548  -16.2176    0.0000 C   0  0  0  0  0  0  0  0  0  0  0  0
   30.3559  -15.5242    0.0000 C   0  0  0  0  0  0  0  0  0  0  0  0
   30.3559  -14.1373    0.0000 C   0  0  0  0  0  0  0  0  0  0  0  0
   29.1548  -13.4438    0.0000 O   0  0  0  0  0  0  0  0  0  0  0  0
   26.7526  -16.2176    0.0000 O   0  0  0  0  0  0  0  0  0  0  0  0
   29.1548  -17.6043    0.0000 O   0  0  0  0  0  0  0  0  0  0  0  0
   31.5755  -16.2285    0.0000 O   0  0  0  0  0  0  0  0  0  0  0  0
   31.5755  -13.4329    0.0000 C   0  0  0  0  0  0  0  0  0  0  0  0
   23.8644  -20.8025    0.0000 C   0  0  0  0  0  0  0  0  0  0  0  0
   25.0757  -21.5020    0.0000 C   0  0  0  0  0  0  0  0  0  0  0  0
   26.2815  -20.8055    0.0000 C   0  0  0  0  0  0  0  0  0  0  0  0
   26.2831  -19.4098    0.0000 C   0  0  0  0  0  0  0  0  0  0  0  0
   25.0791  -18.7104    0.0000 C   0  0  0  0  0  0  0  0  0  0  0  0
   23.8662  -19.4069    0.0000 C   0  0  0  0  0  0  0  0  0  0  0  0
   25.0809  -17.3119    0.0000 C   0  0  0  0  0  0  0  0  0  0  0  0
   26.2891  -16.6067    0.0000 O   0  0  0  0  0  0  0  0  0  0  0  0
   23.8670  -16.6038    0.0000 O   0  0  0  0  0  0  0  0  0  0  0  0
   27.5086  -18.7053    0.0000 O   0  0  0  0  0  0  0  0  0  0  0  0
   27.5135  -17.3061    0.0000 C   0  0  0  0  0  0  0  0  0  0  0  0
 15 19  1  1
 17 20  1  1
 15 17  1  0
  1  2  2  0
  1  3  1  0
  2  4  1  0
  3  5  2  0
  4  6  2  0
  4  7  1  0
  6  8  1  0
  7  9  1  0
  8 10  1  0
  5  6  1  0
 21 22  1  0
 21 23  1  0
 22 24  1  0
 23 25  1  0
 23 26  1  6
 24 27  1  0
 24 28  1  1
 25 29  1  1
 27 30  1  6
 28 31  1  0
 25 27  1  0
 11 12  1  0
 11 13  1  0
 12 14  1  0
 32 33  1  0
 32 34  1  0
 32 35  1  0
 32 36  1  6
 33 37  1  0
 33 38  1  0
 33 39  1  1
 34 40  1  0
 34 41  2  0
 35 42  1  0
 36 43  1  0
 37 44  1  0
 37 45  1  1
 38 46  1  0
 40 47  1  0
 40 48  1  6
 44 49  1  0
 44 50  1  0
 44 51  1  1
 47 52  1  1
 47 53  1  0
 48 54  1  0
 49 55  1  0
 50 56  1  0
 52 57  1  0
 52 58  2  0
 53 59  1  0
 54 60  1  0
 54 61  1  0
 55 62  1  0
 55 63  1  0
 55 64  1  1
 56 65  1  1
 66 57  1  1
 62 67  1  1
 63 68  1  0
 63 69  2  0
 66 70  1  0
 66 71  1  0
 70 72  1  6
 70 73  1  0
 71 74  1  0
 75 72  1  6
 73 76  1  0
 73 77  1  1
 74 78  1  1
 75 79  1  0
 75 80  1  0
 76 81  1  1
 79 82  1  0
 79 83  1  1
 80 84  1  0
 82 85  1  0
 82 86  1  1
 84 87  1  1
 85 88  1  6
 89 88  1  1
 89 90  1  0
 89 91  1  0
 90 92  1  0
 90 93  1  6
 91 94  1  0
 92 95  1  0
 92 96  1  1
 95 97  1  6
 41 45  1  0
 42 47  1  0
 49 46  1  1
 54 59  1  0
 56 62  1  0
 74 76  1  0
 84 85  1  0
 94 95  1  0
 21 67  1  1
 11 97  1  1
 13 15  1  0
 81 98  1  0
 13 16  1  6
 98 99  1  0
 14 17  1  0
 99100  2  0
100  1  1  0
 14 18  1  1
 98101  2  0
 18102  1  0
103104  1  0
104105  1  0
105106  1  0
106107  1  0
107108  1  0
103108  1  0
113117  1  1
115118  1  1
113115  1  0
119120  1  0
119121  1  0
120122  1  0
121123  1  0
121124  1  6
122125  1  0
122126  1  1
123127  1  1
125128  1  6
126129  1  0
123125  1  0
109110  1  0
109111  1  0
110112  1  0
130131  1  0
130132  1  0
130133  1  0
130134  1  6
131135  1  0
131136  1  0
131137  1  1
132138  1  0
132139  2  0
133140  1  0
134141  1  0
135142  1  0
135143  1  1
136144  1  0
138145  1  0
138146  1  6
142147  1  0
142148  1  0
142149  1  1
145150  1  1
145151  1  0
146152  1  0
147153  1  0
148154  1  0
150155  1  0
150156  2  0
151157  1  0
152158  1  0
152159  1  0
153160  1  0
153161  1  0
153162  1  1
154163  1  1
164155  1  1
160165  1  1
161166  1  0
161167  2  0
164168  1  0
164169  1  0
168170  1  6
168171  1  0
169172  1  0
173170  1  6
171174  1  0
171175  1  1
172176  1  1
173177  1  0
173178  1  0
174179  1  1
177180  1  0
177181  1  1
178182  1  0
180183  1  0
180184  1  1
182185  1  1
183186  1  6
187186  1  1
187188  1  0
187189  1  0
188190  1  0
188191  1  6
189192  1  0
190193  1  0
190194  1  1
193195  1  6
139143  1  0
140145  1  0
147144  1  1
152157  1  0
154160  1  0
172174  1  0
182183  1  0
192193  1  0
119165  1  1
109195  1  1
111113  1  0
111114  1  6
112115  1  0
112116  1  1
116196  1  0
179197  1  0
197198  1  0
197199  2  0
198200  2  0
200201  1  0
201202  2  0
202203  1  0
203204  2  0
204205  1  0
205206  2  0
201206  1  0
204207  1  0
207208  1  0
103175  1  6
104209  1  1
105210  1  1
107211  1  1
106212  1  6
213214  1  0
214215  1  0
215216  1  0
216217  1  0
217218  1  0
213218  1  0
223227  1  1
225228  1  1
223225  1  0
229230  1  0
229231  1  0
230232  1  0
231233  1  0
231234  1  6
232235  1  0
232236  1  1
233237  1  1
235238  1  6
236239  1  0
233235  1  0
219220  1  0
219221  1  0
220222  1  0
240241  1  0
240242  1  0
240243  1  0
240244  1  6
241245  1  0
241246  1  0
241247  1  1
242248  1  0
242249  2  0
243250  1  0
244251  1  0
245252  1  0
245253  1  1
246254  1  0
248255  1  0
248256  1  6
252257  1  0
252258  1  0
252259  1  1
255260  1  1
255261  1  0
256262  1  0
257263  1  0
258264  1  0
260265  1  0
260266  2  0
261267  1  0
262268  1  0
262269  1  0
263270  1  0
263271  1  0
263272  1  1
264273  1  1
274265  1  1
270275  1  1
271276  1  0
271277  2  0
274278  1  0
274279  1  0
278280  1  6
278281  1  0
279282  1  0
283280  1  6
281284  1  0
281285  1  1
282286  1  1
283287  1  0
283288  1  0
284289  1  1
287290  1  0
287291  1  1
288292  1  0
290293  1  0
290294  1  1
292295  1  1
293296  1  6
297296  1  1
297298  1  0
297299  1  0
298300  1  0
298301  1  6
299302  1  0
300303  1  0
300304  1  1
303305  1  6
249253  1  0
250255  1  0
257254  1  1
262267  1  0
264270  1  0
282284  1  0
292293  1  0
302303  1  0
229275  1  1
219305  1  1
221223  1  0
221224  1  6
222225  1  0
222226  1  1
226306  1  0
289307  1  0
307308  1  0
307309  2  0
308310  2  0
310311  1  0
311312  2  0
312313  1  0
313314  2  0
314315  1  0
315316  2  0
311316  1  0
314317  1  0
317318  1  0
213285  1  6
214319  1  1
215320  1  1
217321  1  1
216322  1  6
323324  1  0
324325  1  0
325326  1  0
326327  1  0
327328  1  0
323328  1  0
323294  1  6
324329  1  1
325330  1  1
326331  1  6
327332  1  1
337338  1  0
338333  2  0
337339  1  0
333334  1  0
339340  1  0
334335  2  0
339341  2  0
335336  1  0
336337  2  0
336342  1  0
340343  1  0
M  END
