212631-67-9.mol
     RDKit          2D

 29 30  0  0  0  0  0  0  0  0999 V2000
   -2.5800    0.2063    0.0000 C   0  0  0  0  0  0  0  0  0  0  0  0
   -2.5800   -0.6188    0.0000 C   0  0  0  0  0  0  0  0  0  0  0  0
   -1.8655   -1.0313    0.0000 C   0  0  0  0  0  0  0  0  0  0  0  0
   -1.1511   -0.6188    0.0000 C   0  0  0  0  0  0  0  0  0  0  0  0
   -1.1511    0.2063    0.0000 C   0  0  0  0  0  0  0  0  0  0  0  0
   -1.8655    0.6188    0.0000 C   0  0  0  0  0  0  0  0  0  0  0  0
   -0.4366   -1.0313    0.0000 C   0  0  0  0  0  0  0  0  0  0  0  0
    0.2779   -0.6188    0.0000 C   0  0  0  0  0  0  0  0  0  0  0  0
    0.2779    0.2063    0.0000 C   0  0  0  0  0  0  0  0  0  0  0  0
   -0.4366    0.6188    0.0000 N   0  0  0  0  0  0  0  0  0  0  0  0
    0.2755    1.8549    0.0000 C   0  0  0  0  0  0  0  0  0  0  0  0
   -0.4366    1.4438    0.0000 C   0  0  0  0  0  0  0  0  0  0  0  0
   -0.4366   -1.8563    0.0000 O   0  0  0  0  0  0  0  0  0  0  0  0
    0.9923   -1.0313    0.0000 C   0  0  0  0  0  0  0  0  0  0  0  0
    1.7044   -0.6201    0.0000 O   0  0  0  0  0  0  0  0  0  0  0  0
    0.9923   -1.8535    0.0000 O   0  0  0  0  0  0  0  0  0  0  0  0
   -3.2944   -1.0313    0.0000 F   0  0  0  0  0  0  0  0  0  0  0  0
   -3.2944    0.6188    0.0000 N   0  0  0  0  0  0  0  0  0  0  0  0
   -3.2944    1.4438    0.0000 C   0  0  0  0  0  0  0  0  0  0  0  0
   -4.0089    1.8563    0.0000 C   0  0  0  0  0  0  0  0  0  0  0  0
   -4.7234    1.4438    0.0000 N   0  0  0  0  0  0  0  0  0  0  0  0
   -4.7234    0.6188    0.0000 C   0  0  0  0  0  0  0  0  0  0  0  0
   -4.0089    0.2063    0.0000 C   0  0  0  0  0  0  0  0  0  0  0  0
   -5.4379    1.8563    0.0000 C   0  0  0  0  0  0  0  0  0  0  0  0
    4.6156   -0.6867    0.0000 C   0  0  0  0  0  0  0  0  0  0  0  0
    4.6156    0.1356    0.0000 S   0  0  0  0  0  0  0  0  0  0  0  0
    3.7934    0.1356    0.0000 O   0  0  0  0  0  0  0  0  0  0  0  0
    5.4379    0.1356    0.0000 O   0  0  0  0  0  0  0  0  0  0  0  0
    4.6156    0.9577    0.0000 O   0  0  0  0  0  0  0  0  0  0  0  0
 11 12  1  0
 14 15  2  0
 14 16  1  0
  1  2  2  0
  2  3  1  0
  3  4  2  0
  4  5  1  0
  5  6  2  0
  6  1  1  0
  4  7  1  0
  7  8  1  0
  8  9  2  0
  9 10  1  0
 10  5  1  0
 10 12  1  0
  7 13  2  0
  8 14  1  0
  2 17  1  0
  1 18  1  0
 18 19  1  0
 19 20  1  0
 20 21  1  0
 21 22  1  0
 22 23  1  0
 23 18  1  0
 21 24  1  0
 25 26  1  0
 26 27  2  0
 26 28  2  0
 26 29  1  0
V    1 0
V    2 1
V    3 2
V    4 3
V    5 4
V    6 5
V    7 6
V    8 7
V    9 8
V   10 9
V   11 10
V   12 11
V   13 12
V   14 13
V   15 14
V   16 15
V   17 16
V   18 17
V   19 18
V   20 19
V   21 20
V   22 21
V   23 22
V   24 23
V   25 24
V   26 25
V   27 26
V   28 27
V   29 28
M  END
