7249-72-1.mol
     RDKit          2D

 14 15  0  0  0  0  0  0  0  0999 V2000
   -0.6772   -1.3210    0.0000 N   0  0  0  0  0  0  0  0  0  0  0  0
   -1.0897   -0.6065    0.0000 C   0  0  0  0  0  0  0  0  0  0  0  0
   -0.5376    0.0066    0.0000 C   0  0  0  0  0  0  0  0  0  0  0  0
    0.2161   -0.3290    0.0000 C   0  0  0  0  0  0  0  0  0  0  0  0
    0.1298   -1.1495    0.0000 C   0  0  0  0  0  0  0  0  0  0  0  0
   -1.9101   -0.5203    0.0000 C   0  0  0  0  0  0  0  0  0  0  0  0
   -2.3595   -1.2122    0.0000 O   0  0  0  0  0  0  0  0  0  0  0  0
   -2.2457    0.2334    0.0000 O   0  0  0  0  0  0  0  0  0  0  0  0
    0.9305    0.0835    0.0000 C   0  0  0  0  0  0  0  0  0  0  0  0
    0.9305    0.9085    0.0000 C   0  0  0  0  0  0  0  0  0  0  0  0
    1.6450    1.3210    0.0000 C   0  0  0  0  0  0  0  0  0  0  0  0
    2.3595    0.9085    0.0000 C   0  0  0  0  0  0  0  0  0  0  0  0
    2.3595    0.0835    0.0000 C   0  0  0  0  0  0  0  0  0  0  0  0
    1.6450   -0.3290    0.0000 C   0  0  0  0  0  0  0  0  0  0  0  0
  1  2  1  0
  2  3  1  0
  3  4  1  0
  4  5  1  0
  1  5  1  0
  6  7  2  0
  6  8  1  0
  2  6  1  0
  9 10  1  0
 10 11  1  0
 11 12  1  0
 12 13  1  0
 13 14  1  0
  9 14  1  0
  4  9  1  0
M  END
