126642-32-8.mol
     RDKit          2D

 59 60  0  0  1  0  0  0  0  0999 V2000
   -5.1371    4.7781    0.0000 S   0  0  0  0  0  0  0  0  0  0  0  0
    2.0077   -0.9970    0.0000 O   0  0  0  0  0  0  0  0  0  0  0  0
   -2.9937    3.5406    0.0000 O   0  0  0  0  0  0  0  0  0  0  0  0
   -0.1358    1.0656    0.0000 O   0  0  0  0  0  0  0  0  0  0  0  0
   -0.8503    1.4781    0.0000 O   0  0  0  0  0  0  0  0  0  0  0  0
    2.7221   -1.4095    0.0000 O   0  0  0  0  0  0  0  0  0  0  0  0
   -5.1371    1.4781    0.0000 O   0  0  0  0  0  0  0  0  0  0  0  0
    4.1512   -4.7096    0.0000 O   0  0  0  0  0  0  0  0  0  0  0  0
    3.4367   -0.9970    0.0000 O   0  0  0  0  0  0  0  0  0  0  0  0
    4.8656   -3.4720    0.0000 O   0  0  0  0  0  0  0  0  0  0  0  0
    5.5801    1.0656    0.0000 O   0  0  0  0  0  0  0  0  0  0  0  0
    6.2946   -0.1720    0.0000 O   0  0  0  0  0  0  0  0  0  0  0  0
    0.5788   -0.9970    0.0000 N   0  0  0  0  0  0  0  0  0  0  0  0
   -2.2792    1.4781    0.0000 N   0  0  0  0  0  0  0  0  0  0  0  0
    2.0077   -2.6470    0.0000 N   0  0  0  0  0  0  0  0  0  0  0  0
   -3.7082    2.3031    0.0000 N   0  0  0  0  0  0  0  0  0  0  0  0
   -0.8503   -0.1720    0.0000 N   0  0  0  0  0  0  0  0  0  0  0  0
    4.1512   -2.2345    0.0000 N   0  0  0  0  0  0  0  0  0  0  0  0
   -5.8517    2.7156    0.0000 N   0  0  0  0  0  0  0  0  0  0  0  0
   -1.5647    2.7156    0.0000 C   0  0  0  0  0  0  0  0  0  0  0  0
   -2.2792    2.3031    0.0000 C   0  0  0  0  0  0  0  0  0  0  0  0
   -1.5647    3.5406    0.0000 C   0  0  0  0  0  0  0  0  0  0  0  0
    0.5788   -0.1720    0.0000 C   0  0  0  0  0  0  0  0  0  0  0  0
    1.2932   -2.2345    0.0000 C   0  0  0  0  0  0  0  0  0  0  0  0
    1.2932    0.2405    0.0000 C   0  0  0  0  0  0  0  0  0  0  0  0
    1.2932   -1.4095    0.0000 C   0  0  0  0  0  0  0  0  0  0  0  0
    0.5788   -2.6470    0.0000 C   0  0  0  0  0  0  0  0  0  0  0  0
   -2.9937    2.7156    0.0000 C   0  0  0  0  0  0  0  0  0  0  0  0
   -0.1358    0.2405    0.0000 C   0  0  0  0  0  0  0  0  0  0  0  0
   -0.8503    3.9531    0.0000 C   0  0  0  0  0  0  0  0  0  0  0  0
   -2.2792    3.9531    0.0000 C   0  0  0  0  0  0  0  0  0  0  0  0
   -4.4227    2.7156    0.0000 C   0  0  0  0  0  0  0  0  0  0  0  0
    1.2932    1.0656    0.0000 C   0  0  0  0  0  0  0  0  0  0  0  0
   -0.1358   -1.4095    0.0000 C   0  0  0  0  0  0  0  0  0  0  0  0
   -1.5647    0.2405    0.0000 C   0  0  0  0  0  0  0  0  0  0  0  0
   -1.5647    1.0656    0.0000 C   0  0  0  0  0  0  0  0  0  0  0  0
    0.5788   -3.4720    0.0000 C   0  0  0  0  0  0  0  0  0  0  0  0
    3.4367   -2.6470    0.0000 C   0  0  0  0  0  0  0  0  0  0  0  0
    2.7221   -2.2345    0.0000 C   0  0  0  0  0  0  0  0  0  0  0  0
   -4.4227    3.5406    0.0000 C   0  0  0  0  0  0  0  0  0  0  0  0
    0.5788    1.4781    0.0000 C   0  0  0  0  0  0  0  0  0  0  0  0
    2.0077    1.4781    0.0000 C   0  0  0  0  0  0  0  0  0  0  0  0
    3.4367   -3.4720    0.0000 C   0  0  0  0  0  0  0  0  0  0  0  0
   -5.1371    2.3031    0.0000 C   0  0  0  0  0  0  0  0  0  0  0  0
   -5.1371    3.9531    0.0000 C   0  0  0  0  0  0  0  0  0  0  0  0
   -0.1358   -3.8846    0.0000 C   0  0  0  0  0  0  0  0  0  0  0  0
    1.2932   -3.8846    0.0000 C   0  0  0  0  0  0  0  0  0  0  0  0
    0.5788    2.3031    0.0000 C   0  0  0  0  0  0  0  0  0  0  0  0
    2.0077    2.3031    0.0000 C   0  0  0  0  0  0  0  0  0  0  0  0
   -0.1358   -4.7096    0.0000 C   0  0  0  0  0  0  0  0  0  0  0  0
    1.2932   -4.7096    0.0000 C   0  0  0  0  0  0  0  0  0  0  0  0
    1.2932    2.7156    0.0000 C   0  0  0  0  0  0  0  0  0  0  0  0
    4.1512   -1.4095    0.0000 C   0  0  0  0  0  0  0  0  0  0  0  0
    0.5788   -5.1221    0.0000 C   0  0  0  0  0  0  0  0  0  0  0  0
    4.1512   -3.8846    0.0000 C   0  0  0  0  0  0  0  0  0  0  0  0
    4.8656   -0.9970    0.0000 C   0  0  0  0  0  0  0  0  0  0  0  0
    4.8656   -0.1720    0.0000 C   0  0  0  0  0  0  0  0  0  0  0  0
   -5.8517    5.1906    0.0000 C   0  0  0  0  0  0  0  0  0  0  0  0
    5.5801    0.2405    0.0000 C   0  0  0  0  0  0  0  0  0  0  0  0
  1 45  1  0
  1 58  1  0
  2 26  2  0
  3 28  2  0
  4 29  2  0
  5 36  2  0
  6 39  2  0
  7 44  2  0
  8 55  1  0
  9 53  2  0
 10 55  2  0
 11 59  1  0
 12 59  2  0
 23 13  1  0
 13 26  1  0
 13 34  1  0
 21 14  1  0
 14 36  1  0
 24 15  1  0
 15 39  1  0
 16 28  1  0
 32 16  1  0
 17 29  1  0
 17 35  1  0
 38 18  1  0
 18 53  1  0
 19 44  1  0
 21 20  1  6
 20 22  1  0
 21 28  1  0
 22 30  1  0
 22 31  1  0
 23 25  1  6
 23 29  1  0
 24 26  1  0
 24 27  1  1
 25 33  1  0
 27 37  1  0
 32 40  1  6
 32 44  1  0
 33 41  2  0
 33 42  1  0
 35 36  1  0
 37 46  2  0
 37 47  1  0
 38 39  1  0
 38 43  1  1
 40 45  1  0
 41 48  1  0
 42 49  2  0
 43 55  1  0
 46 50  1  0
 47 51  2  0
 48 52  2  0
 49 52  1  0
 50 54  2  0
 51 54  1  0
 53 56  1  0
 56 57  1  0
 57 59  1  0
V    1 0
V    2 1
V    3 2
V    4 3
V    5 4
V    6 5
V    7 6
V    8 7
V    9 8
V   10 9
V   11 10
V   12 11
V   13 12
V   14 13
V   15 14
V   16 15
V   17 16
V   18 17
V   19 18
V   20 19
V   21 20
V   22 21
V   23 22
V   24 23
V   25 24
V   26 25
V   27 26
V   28 27
V   29 28
V   30 29
V   31 30
V   32 31
V   33 32
V   34 33
V   35 34
V   36 35
V   37 36
V   38 37
V   39 38
V   40 39
V   41 40
V   42 41
V   43 42
V   44 43
V   45 44
V   46 45
V   47 46
V   48 47
V   49 48
V   50 49
V   51 50
V   52 51
V   53 52
V   54 53
V   55 54
V   56 55
V   57 56
V   58 57
V   59 58
M  END
