 
 
 
 51 53  0  0  0  0  0  0  0  0999 V2000
   24.1160  -15.2681    0.0000 C   0  0  0  0  0  0  0  0  0  0  0  0
   25.3344  -15.9715    0.0000 C   0  0  0  0  0  0  0  0  0  0  0  0
   22.8977  -15.9715    0.0000 O   0  0  0  0  0  0  0  0  0  0  0  0
   21.6964  -15.2777    0.0000 C   0  0  0  0  0  0  0  0  0  0  0  0
   20.5032  -15.9666    0.0000 C   0  0  0  0  0  0  0  0  0  0  0  0
   19.3061  -15.2752    0.0000 C   0  0  0  0  0  0  0  0  0  0  0  0
   18.1108  -15.9653    0.0000 N   0  0  0  0  0  0  0  0  0  0  0  0
   16.9148  -15.2746    0.0000 C   0  0  0  0  0  0  0  0  0  0  0  0
   15.7190  -15.9650    0.0000 C   0  0  0  0  0  0  0  0  0  0  0  0
   16.9148  -13.8614    0.0000 O   0  0  0  0  0  0  0  0  0  0  0  0
   14.5234  -15.2744    0.0000 C   0  0  0  0  0  0  0  0  0  0  0  0
   13.3048  -15.9776    0.0000 C   0  0  0  0  0  0  0  0  0  0  0  0
   13.3046  -17.3845    0.0000 C   0  0  0  0  0  0  0  0  0  0  0  0
   14.5004  -18.0750    0.0000 C   0  0  0  0  0  0  0  0  0  0  0  0
   15.7188  -17.3718    0.0000 C   0  0  0  0  0  0  0  0  0  0  0  0
   21.6963  -13.8615    0.0000 O   0  0  0  0  0  0  0  0  0  0  0  0
   11.9669  -15.5428    0.0000 N   0  0  0  0  0  0  0  0  0  0  0  0
   11.1398  -16.6807    0.0000 C   0  0  0  0  0  0  0  0  0  0  0  0
   11.9666  -17.8191    0.0000 N   0  0  0  0  0  0  0  0  0  0  0  0
   11.5351  -19.1457    0.0000 C   0  0  0  0  0  0  0  0  0  0  0  0
    9.7662  -16.6804    0.0000 C   0  0  0  0  0  0  0  0  0  0  0  0
    9.0649  -17.8945    0.0000 N   0  0  0  0  0  0  0  0  0  0  0  0
    7.6561  -17.8942    0.0000 C   0  0  0  0  0  0  0  0  0  0  0  0
    6.9427  -16.6582    0.0000 C   0  0  0  0  0  0  0  0  0  0  0  0
    5.5358  -16.6580    0.0000 C   0  0  0  0  0  0  0  0  0  0  0  0
    4.8323  -17.8763    0.0000 C   0  0  0  0  0  0  0  0  0  0  0  0
    5.5457  -19.1124    0.0000 C   0  0  0  0  0  0  0  0  0  0  0  0
    6.9526  -19.1125    0.0000 C   0  0  0  0  0  0  0  0  0  0  0  0
    3.4354  -17.8761    0.0000 C   0  0  0  0  0  0  0  0  0  0  0  0
    2.7342  -19.0904    0.0000 N   0  0  0  0  0  0  0  0  0  0  0  0
    2.7297  -16.6536    0.0000 N   0  0  0  0  0  0  0  0  0  0  0  0
    3.4247  -15.4505    0.0000 C   0  0  0  0  0  0  0  0  0  0  0  0
    4.8419  -15.4506    0.0000 O   0  0  0  0  0  0  0  0  0  0  0  0
    2.7365  -14.2582    0.0000 O   0  0  0  0  0  0  0  0  0  0  0  0
    5.5334  -14.2538    0.0000 C   0  0  0  0  0  0  0  0  0  0  0  0
    6.9522  -14.2539    0.0000 C   0  0  0  0  0  0  0  0  0  0  0  0
    7.6433  -13.0578    0.0000 C   0  0  0  0  0  0  0  0  0  0  0  0
    9.0625  -13.0579    0.0000 C   0  0  0  0  0  0  0  0  0  0  0  0
    9.7534  -11.8618    0.0000 C   0  0  0  0  0  0  0  0  0  0  0  0
   11.1728  -11.8619    0.0000 C   0  0  0  0  0  0  0  0  0  0  0  0
   18.1200  -17.3710    0.0000 C   0  0  0  0  0  0  0  0  0  0  0  0
   16.9307  -18.0683    0.0000 N   0  0  0  0  0  0  0  0  0  0  0  0
   16.9400  -19.4691    0.0000 C   0  0  0  0  0  0  0  0  0  0  0  0
   18.1577  -20.1613    0.0000 C   0  0  0  0  0  0  0  0  0  0  0  0
   19.3471  -19.4640    0.0000 C   0  0  0  0  0  0  0  0  0  0  0  0
   19.3377  -18.0633    0.0000 C   0  0  0  0  0  0  0  0  0  0  0  0
   31.0083  -15.9012    0.0000 S   0  0  0  0  0  0  0  0  0  0  0  0
   31.0091  -17.3080    0.0000 O   0  0  0  0  0  0  0  0  0  0  0  0
   30.9780  -14.4946    0.0000 O   0  0  0  0  0  0  0  0  0  0  0  0
   32.4150  -15.8856    0.0000 O   0  0  0  0  0  0  0  0  0  0  0  0
   29.6015  -15.9168    0.0000 C   0  0  0  0  0  0  0  0  0  0  0  0
  1  2  1  0     0  0
  1  3  1  0     0  0
  3  4  1  0     0  0
  4  5  1  0     0  0
  5  6  1  0     0  0
  6  7  1  0     0  0
  7  8  1  0     0  0
  8  9  1  0     0  0
  8 10  2  0     0  0
  9 11  2  0     0  0
 11 12  1  0     0  0
 12 13  2  0     0  0
 13 14  1  0     0  0
 14 15  2  0     0  0
  9 15  1  0     0  0
  4 16  2  0     0  0
 12 17  1  0     0  0
 17 18  2  0     0  0
 18 19  1  0     0  0
 13 19  1  0     0  0
 19 20  1  0     0  0
 18 21  1  0     0  0
 21 22  1  0     0  0
 22 23  1  0     0  0
 23 24  2  0     0  0
 24 25  1  0     0  0
 25 26  2  0     0  0
 26 27  1  0     0  0
 27 28  2  0     0  0
 23 28  1  0     0  0
 26 29  1  0     0  0
 29 30  1  0     0  0
 29 31  2  0     0  0
 31 32  1  0     0  0
 32 33  1  0     0  0
 32 34  2  0     0  0
 33 35  1  0     0  0
 35 36  1  0     0  0
 36 37  1  0     0  0
 37 38  1  0     0  0
 38 39  1  0     0  0
 39 40  1  0     0  0
  7 41  1  0     0  0
 41 42  2  0     0  0
 42 43  1  0     0  0
 43 44  2  0     0  0
 44 45  1  0     0  0
 45 46  2  0     0  0
 41 46  1  0     0  0
 47 48  2  0     0  0
 47 49  2  0     0  0
 47 50  1  0     0  0
 47 51  1  0     0  0
M  END
