 
     RDKit          2D

 41 46  0  0  1  0  0  0  0  0999 V2000
   21.1400  -21.0000    0.0000 C   0  0  0  0  0  0  0  0  0  0  0  0
   21.1400  -22.3300    0.0000 C   0  0  0  0  0  0  0  0  0  0  0  0
   22.3300  -23.0300    0.0000 C   0  0  0  0  0  0  0  0  0  0  0  0
   23.5200  -22.3300    0.0000 C   0  0  0  0  0  0  0  0  0  0  0  0
   23.5200  -21.0000    0.0000 C   0  0  0  0  0  0  0  0  0  0  0  0
   22.3300  -20.3000    0.0000 C   0  0  0  0  0  0  0  0  0  0  0  0
   24.6400  -23.0300    0.0000 C   0  0  0  0  0  0  0  0  0  0  0  0
   25.8300  -22.3300    0.0000 C   0  0  0  0  0  0  0  0  0  0  0  0
   25.8300  -21.0000    0.0000 C   0  0  0  0  0  0  0  0  0  0  0  0
   24.6400  -20.3000    0.0000 C   0  0  0  0  0  0  0  0  0  0  0  0
   27.0200  -20.3000    0.0000 C   0  0  0  0  0  0  0  0  0  0  0  0
   27.0200  -18.9700    0.0000 C   0  0  0  0  0  0  0  0  0  0  0  0
   25.8300  -18.3400    0.0000 C   0  0  0  0  0  0  0  0  0  0  0  0
   24.6400  -18.9700    0.0000 C   0  0  0  0  0  0  0  0  0  0  0  0
   29.3300  -20.3000    0.0000 C   0  0  0  0  0  0  0  0  0  0  0  0
   29.3300  -18.9700    0.0000 C   0  0  0  0  0  0  0  0  0  0  0  0
   28.1400  -18.3400    0.0000 C   0  0  0  0  0  0  0  0  0  0  0  0
   23.5200  -19.6700    0.0000 C   0  0  0  0  0  0  0  0  0  0  0  0
   27.0200  -17.6400    0.0000 C   0  0  0  0  0  0  0  0  0  0  0  0
   30.4500  -18.3400    0.0000 C   0  0  0  0  0  0  0  0  0  0  0  0
   28.1400  -16.6600    0.0000 C   0  0  0  0  0  0  0  0  0  0  0  0
   24.6400  -21.7000    0.0000 F   0  0  0  0  0  0  0  0  0  0  0  0
   29.8900  -17.2200    0.0000 O   0  0  0  0  0  0  0  0  0  0  0  0
   20.0200  -23.0300    0.0000 O   0  0  0  0  0  0  0  0  0  0  0  0
   29.3300  -15.9600    0.0000 O   0  0  0  0  0  0  0  0  0  0  0  0
   27.0200  -15.9600    0.0000 C   0  0  0  0  0  0  0  0  0  0  0  0
   25.8300  -16.6600    0.0000 O   0  0  0  0  0  0  0  0  0  0  0  0
   31.2200  -17.2200    0.0000 C   0  0  0  0  0  0  0  0  0  0  0  0
   31.9200  -18.4100    0.0000 O   0  0  0  0  0  0  0  0  0  0  0  0
   31.9200  -16.0300    0.0000 C   0  0  0  0  0  0  0  0  0  0  0  0
   24.6400  -15.9600    0.0000 C   0  0  0  0  0  0  0  0  0  0  0  0
   24.6400  -14.5600    0.0000 O   0  0  0  0  0  0  0  0  0  0  0  0
   23.4500  -16.6600    0.0000 C   0  0  0  0  0  0  0  0  0  0  0  0
   22.7500  -15.4700    0.0000 C   0  0  0  0  0  0  0  0  0  0  0  0
   21.3500  -15.4700    0.0000 C   0  0  0  0  0  0  0  0  0  0  0  0
   20.6500  -16.6600    0.0000 C   0  0  0  0  0  0  0  0  0  0  0  0
   21.3500  -17.8500    0.0000 C   0  0  0  0  0  0  0  0  0  0  0  0
   22.7500  -17.8500    0.0000 C   0  0  0  0  0  0  0  0  0  0  0  0
   33.3722  -15.8020    0.0000 C   0  0  0  0  0  0  0  0  0  0  0  0
   32.4961  -14.7350    0.0000 C   0  0  0  0  0  0  0  0  0  0  0  0
   24.6400  -17.5700    0.0000 O   0  0  0  0  0  0  0  0  0  0  0  0
  1  2  1  0
  2  3  1  0
  3  4  2  0
  4  5  1  0
  5  6  1  0
  1  6  2  0
  4  7  1  0
  7  8  1  0
  9  8  1  6
  9 10  1  0
  5 10  1  0
  9 11  1  0
 11 12  1  0
 12 13  1  0
 13 14  1  0
 10 14  1  0
 11 15  1  1
 15 16  1  0
 16 17  1  0
 12 17  1  0
  5 18  1  1
 12 19  1  1
 16 20  1  6
 17 21  1  0
 10 22  1  6
 17 23  1  6
  2 24  2  0
 21 25  2  0
 21 26  1  0
 26 27  1  0
 23 28  1  0
 28 29  2  0
 28 30  1  0
 27 31  1  0
 31 32  2  0
 31 33  1  0
 33 34  1  0
 34 35  1  0
 35 36  1  0
 36 37  1  0
 37 38  1  0
 33 38  1  0
 30 39  1  0
 39 40  1  0
 40 30  1  0
 14 41  1  1
M  END
