 
     RDKit          2D

 22 25  0  0  0  0  0  0  0  0999 V2000
   25.9059  -17.5588    0.0000 C   0  0  0  0  0  0  0  0  0  0  0  0
   25.9059  -18.9636    0.0000 N   0  0  0  0  0  0  0  0  0  0  0  0
   27.1000  -19.6661    0.0000 C   0  0  0  0  0  0  0  0  0  0  0  0
   28.2941  -18.9636    0.0000 C   0  0  0  0  0  0  0  0  0  0  0  0
   28.2941  -17.5588    0.0000 C   0  0  0  0  0  0  0  0  0  0  0  0
   27.1000  -16.8564    0.0000 C   0  0  0  0  0  0  0  0  0  0  0  0
   27.1000  -21.0709    0.0000 O   0  0  0  0  0  0  0  0  0  0  0  0
   29.6990  -19.3851    0.0000 C   0  0  0  0  0  0  0  0  0  0  0  0
   30.4716  -18.2612    0.0000 C   0  0  0  0  0  0  0  0  0  0  0  0
   29.6990  -17.0671    0.0000 N   0  0  0  0  0  0  0  0  0  0  0  0
   30.2609  -20.6494    0.0000 C   0  0  0  0  0  0  0  0  0  0  0  0
   31.6657  -20.7899    0.0000 C   0  0  0  0  0  0  0  0  0  0  0  0
   32.4384  -19.6661    0.0000 C   0  0  0  0  0  0  0  0  0  0  0  0
   31.8764  -18.4017    0.0000 C   0  0  0  0  0  0  0  0  0  0  0  0
   24.6416  -19.6661    0.0000 C   0  0  0  0  0  0  0  0  0  0  0  0
   23.4475  -18.9636    0.0000 C   0  0  0  0  0  0  0  0  0  0  0  0
   30.1204  -15.7326    0.0000 C   0  0  0  0  0  0  0  0  0  0  0  0
   23.4475  -17.5588    0.0000 C   0  0  0  0  0  0  0  0  0  0  0  0
   24.6416  -16.8564    0.0000 C   0  0  0  0  0  0  0  0  0  0  0  0
   22.1129  -17.1374    0.0000 N   0  0  0  0  0  0  0  0  0  0  0  0
   21.3403  -18.2612    0.0000 C   0  0  0  0  0  0  0  0  0  0  0  0
   22.1129  -19.3851    0.0000 N   0  0  0  0  0  0  0  0  0  0  0  0
  1  2  1  0
  2  3  1  0
  3  4  1  0
  4  5  2  0
  5  6  1  0
  1  6  1  0
  3  7  2  0
  4  8  1  0
  8  9  2  0
  9 10  1  0
  5 10  1  0
  8 11  1  0
 11 12  2  0
 12 13  1  0
 13 14  2  0
  9 14  1  0
  2 15  1  0
 15 16  1  0
 10 17  1  0
 16 18  2  0
 18 19  1  0
 18 20  1  0
 20 21  1  0
 21 22  2  0
 16 22  1  0
M  END
