 
     RDKit          2D

 22 25  0  0  1  0  0  0  0  0999 V2000
   22.8900  -19.6000    0.0000 C   0  0  0  0  0  0  0  0  0  0  0  0
   22.8900  -20.9300    0.0000 C   0  0  0  0  0  0  0  0  0  0  0  0
   24.0100  -21.6300    0.0000 C   0  0  0  0  0  0  0  0  0  0  0  0
   25.2000  -20.9300    0.0000 C   0  0  0  0  0  0  0  0  0  0  0  0
   25.2000  -19.6000    0.0000 C   0  0  0  0  0  0  0  0  0  0  0  0
   24.0100  -18.9000    0.0000 C   0  0  0  0  0  0  0  0  0  0  0  0
   26.3200  -21.6300    0.0000 C   0  0  0  0  0  0  0  0  0  0  0  0
   27.5100  -20.9300    0.0000 C   0  0  0  0  0  0  0  0  0  0  0  0
   27.5100  -19.6000    0.0000 C   0  0  0  0  0  0  0  0  0  0  0  0
   26.3200  -18.9000    0.0000 C   0  0  0  0  0  0  0  0  0  0  0  0
   28.6300  -18.9000    0.0000 C   0  0  0  0  0  0  0  0  0  0  0  0
   28.6300  -17.5700    0.0000 C   0  0  0  0  0  0  0  0  0  0  0  0
   27.5100  -16.9400    0.0000 C   0  0  0  0  0  0  0  0  0  0  0  0
   26.3200  -17.5700    0.0000 C   0  0  0  0  0  0  0  0  0  0  0  0
   21.7000  -21.6300    0.0000 O   0  0  0  0  0  0  0  0  0  0  0  0
   31.0549  -18.9000    0.0000 C   0  0  0  0  0  0  0  0  0  0  0  0
   31.0549  -17.5700    0.0000 C   0  0  0  0  0  0  0  0  0  0  0  0
   29.8424  -16.8700    0.0000 C   0  0  0  0  0  0  0  0  0  0  0  0
   29.8424  -15.4702    0.0000 O   0  0  0  0  0  0  0  0  0  0  0  0
   28.6222  -16.1700    0.0000 C   0  0  0  0  0  0  0  0  0  0  0  0
   31.0379  -16.1796    0.0000 C   0  0  0  0  0  0  0  0  0  0  0  0
   32.2253  -16.8651    0.0000 C   0  0  0  0  0  0  0  0  0  0  0  0
  1  2  1  0
  2  3  1  0
  3  4  2  0
  4  5  1  0
  5  6  1  6
  1  6  1  0
  4  7  1  0
  7  8  1  0
  9  8  1  6
  9 10  1  0
  5 10  1  0
  9 11  1  0
 11 12  1  0
 12 13  1  0
 13 14  1  0
 10 14  1  1
  2 15  2  0
 11 16  1  1
 16 17  1  0
 17 18  1  0
 12 18  1  0
 18 19  1  1
 12 20  1  1
 18 21  1  0
 21 22  1  0
M  END
