56086-94-3.mol
     RDKit          2D

 75 80  0  0  0  0  0  0  0  0999 V2000
   -0.7726    3.0535    0.0000 C   0  0  0  0  0  0  0  0  0  0  0  0
   -0.7726    2.2388    0.0000 C   0  0  0  0  0  0  0  0  0  0  0  0
   -0.0683    3.4635    0.0000 O   0  0  0  0  0  0  0  0  0  0  0  0
   -1.5714    3.7840    0.0000 C   0  0  0  0  0  0  0  0  0  0  0  0
   -0.0683    1.8289    0.0000 C   0  0  0  0  0  0  0  0  0  0  0  0
   -1.6555    1.7711    0.0000 O   0  0  0  0  0  0  0  0  0  0  0  0
    0.6412    3.0535    0.0000 C   0  0  0  0  0  0  0  0  0  0  0  0
   -2.7013    3.7788    0.0000 O   0  0  0  0  0  0  0  0  0  0  0  0
    0.6412    2.2388    0.0000 C   0  0  0  0  0  0  0  0  0  0  0  0
   -0.0629    1.0144    0.0000 O   0  0  0  0  0  0  0  0  0  0  0  0
   -1.6817    0.8620    0.0000 C   0  0  0  0  0  0  0  0  0  0  0  0
    1.2929    3.7262    0.0000 O   0  0  0  0  0  0  0  0  0  0  0  0
   -3.3267    3.1586    0.0000 C   0  0  0  0  0  0  0  0  0  0  0  0
    1.3455    1.6870    0.0000 O   0  0  0  0  0  0  0  0  0  0  0  0
   -1.0090    0.2365    0.0000 C   0  0  0  0  0  0  0  0  0  0  0  0
    2.2074    3.6999    0.0000 C   0  0  0  0  0  0  0  0  0  0  0  0
   -4.0310    3.5685    0.0000 O   0  0  0  0  0  0  0  0  0  0  0  0
   -3.3267    2.3440    0.0000 C   0  0  0  0  0  0  0  0  0  0  0  0
   -1.7605   -0.4625    0.0000 C   0  0  0  0  0  0  0  0  0  0  0  0
   -0.3416   -0.2733    0.0000 C   0  0  0  0  0  0  0  0  0  0  0  0
   -0.2574    0.5046    0.0000 C   0  0  0  0  0  0  0  0  0  0  0  0
    2.8748    3.0797    0.0000 C   0  0  0  0  0  0  0  0  0  0  0  0
   -4.7353    3.1586    0.0000 C   0  0  0  0  0  0  0  0  0  0  0  0
   -4.0310    1.9394    0.0000 C   0  0  0  0  0  0  0  0  0  0  0  0
   -2.5384    1.7711    0.0000 O   0  0  0  0  0  0  0  0  0  0  0  0
   -1.8708   -1.5871    0.0000 O   0  0  0  0  0  0  0  0  0  0  0  0
    3.5791    3.4843    0.0000 O   0  0  0  0  0  0  0  0  0  0  0  0
    2.8748    2.2651    0.0000 C   0  0  0  0  0  0  0  0  0  0  0  0
   -4.7353    2.3440    0.0000 C   0  0  0  0  0  0  0  0  0  0  0  0
   -5.4394    3.5685    0.0000 C   0  0  0  0  0  0  0  0  0  0  0  0
   -4.0467    1.0932    0.0000 O   0  0  0  0  0  0  0  0  0  0  0  0
   -1.0564   -2.2599    0.0000 C   0  0  0  0  0  0  0  0  0  0  0  0
    4.2885    3.0797    0.0000 C   0  0  0  0  0  0  0  0  0  0  0  0
    3.5791    1.8552    0.0000 C   0  0  0  0  0  0  0  0  0  0  0  0
    2.1548    1.7133    0.0000 O   0  0  0  0  0  0  0  0  0  0  0  0
   -5.5971    1.7711    0.0000 O   0  0  0  0  0  0  0  0  0  0  0  0
   -6.5326    3.5633    0.0000 *   0  0  0  0  0  0  0  0  0  0  0  0
   -0.6516   -2.9693    0.0000 C   0  0  0  0  0  0  0  0  0  0  0  0
   -0.6516   -1.5609    0.0000 C   0  0  0  0  0  0  0  0  0  0  0  0
    4.2885    2.2651    0.0000 C   0  0  0  0  0  0  0  0  0  0  0  0
    5.1768    3.4843    0.0000 O   0  0  0  0  0  0  0  0  0  0  0  0
    3.5844    1.0406    0.0000 O   0  0  0  0  0  0  0  0  0  0  0  0
    0.1577   -2.9747    0.0000 O   0  0  0  0  0  0  0  0  0  0  0  0
   -1.6291   -3.3321    0.0000 C   0  0  0  0  0  0  0  0  0  0  0  0
    0.1734   -1.5609    0.0000 C   0  0  0  0  0  0  0  0  0  0  0  0
   -1.0090   -0.6727    0.0000 O   0  0  0  0  0  0  0  0  0  0  0  0
    4.9928    1.7395    0.0000 O   0  0  0  0  0  0  0  0  0  0  0  0
    6.2016    3.4843    0.0000 *   0  0  0  0  0  0  0  0  0  0  0  0
    0.5782   -2.2704    0.0000 C   0  0  0  0  0  0  0  0  0  0  0  0
   -2.4596   -2.3913    0.0000 O   0  0  0  0  0  0  0  0  0  0  0  0
    0.5834   -0.8566    0.0000 O   0  0  0  0  0  0  0  0  0  0  0  0
    1.4769   -2.3125    0.0000 O   0  0  0  0  0  0  0  0  0  0  0  0
   -3.4108   -2.2652    0.0000 C   0  0  0  0  0  0  0  0  0  0  0  0
    2.3703   -3.2480    0.0000 C   0  0  0  0  0  0  0  0  0  0  0  0
   -3.8313   -2.9693    0.0000 O   0  0  0  0  0  0  0  0  0  0  0  0
   -3.8155   -1.5556    0.0000 C   0  0  0  0  0  0  0  0  0  0  0  0
    3.5108   -2.9116    0.0000 C   0  0  0  0  0  0  0  0  0  0  0  0
   -4.6406   -2.9693    0.0000 C   0  0  0  0  0  0  0  0  0  0  0  0
   -4.6353   -1.5556    0.0000 C   0  0  0  0  0  0  0  0  0  0  0  0
   -3.4055   -0.8566    0.0000 O   0  0  0  0  0  0  0  0  0  0  0  0
    4.3201   -2.9221    0.0000 O   0  0  0  0  0  0  0  0  0  0  0  0
    3.1061   -2.2021    0.0000 C   0  0  0  0  0  0  0  0  0  0  0  0
   -5.0453   -2.2599    0.0000 C   0  0  0  0  0  0  0  0  0  0  0  0
   -5.0347   -3.7840    0.0000 C   0  0  0  0  0  0  0  0  0  0  0  0
   -5.1135   -0.8094    0.0000 O   0  0  0  0  0  0  0  0  0  0  0  0
    4.7406   -2.2073    0.0000 C   0  0  0  0  0  0  0  0  0  0  0  0
    3.5108   -1.5032    0.0000 C   0  0  0  0  0  0  0  0  0  0  0  0
    2.2599   -2.2021    0.0000 O   0  0  0  0  0  0  0  0  0  0  0  0
   -5.8914   -2.2599    0.0000 O   0  0  0  0  0  0  0  0  0  0  0  0
   -6.4223   -3.7735    0.0000 *   0  0  0  0  0  0  0  0  0  0  0  0
    4.3359   -1.5032    0.0000 C   0  0  0  0  0  0  0  0  0  0  0  0
    5.6392   -2.2547    0.0000 O   0  0  0  0  0  0  0  0  0  0  0  0
    3.0641   -0.5939    0.0000 O   0  0  0  0  0  0  0  0  0  0  0  0
    4.7458   -0.7989    0.0000 O   0  0  0  0  0  0  0  0  0  0  0  0
    6.5326   -2.2547    0.0000 *   0  0  0  0  0  0  0  0  0  0  0  0
  1  2  1  0
  1  3  1  0
  1  4  1  1
  2  5  1  0
  2  6  1  6
  3  7  1  0
  4  8  1  0
  5  9  1  0
  5 10  1  1
  6 11  1  0
  7 12  1  6
  7  9  1  0
  8 13  1  0
  9 14  1  6
 11 15  1  0
 12 16  1  0
 13 17  1  0
 13 18  1  0
 15 19  1  0
 15 20  1  0
 15 21  1  0
 22 16  1  1
 17 23  1  0
 18 24  1  0
 18 25  1  6
 19 26  1  0
 22 27  1  0
 22 28  1  0
 23 29  1  0
 23 30  1  1
 24 31  1  1
 24 29  1  0
 32 26  1  1
 27 33  1  0
 28 34  1  0
 28 35  1  6
 29 36  1  6
 30 37  1  0
 32 38  1  0
 32 39  1  0
 33 40  1  0
 33 41  1  6
 34 42  1  1
 34 40  1  0
 38 43  1  0
 38 44  1  6
 39 45  1  0
 39 46  1  6
 40 47  1  6
 41 48  1  0
 43 49  1  0
 44 50  1  0
 45 51  1  1
 45 49  1  0
 49 52  1  1
 53 50  1  1
 52 54  1  0
 53 55  1  0
 53 56  1  0
 57 54  1  6
 55 58  1  0
 56 59  1  0
 56 60  1  1
 57 61  1  0
 57 62  1  0
 58 63  1  0
 58 64  1  6
 59 65  1  6
 59 63  1  0
 61 66  1  0
 62 67  1  0
 62 68  1  1
 63 69  1  1
 64 70  1  0
 66 71  1  0
 66 72  1  1
 67 73  1  6
 67 71  1  0
 71 74  1  1
 72 75  1  0
V   37 *
V   48 *
V   70 *
V   75 *
M  END
