 
     RDKit          2D

 22 26  0  0  1  0  0  0  0  0999 V2000
   24.6400  -19.7400    0.0000 N   0  0  0  0  0  0  0  0  0  0  0  0
   26.0400  -19.7400    0.0000 C   0  0  0  0  0  0  0  0  0  0  0  0
   26.7400  -18.5500    0.0000 C   0  0  0  0  0  0  0  0  0  0  0  0
   26.0400  -17.3600    0.0000 C   0  0  0  0  0  0  0  0  0  0  0  0
   24.6400  -17.3600    0.0000 C   0  0  0  0  0  0  0  0  0  0  0  0
   23.9400  -18.4800    0.0000 C   0  0  0  0  0  0  0  0  0  0  0  0
   26.7400  -16.1700    0.0000 C   0  0  0  0  0  0  0  0  0  0  0  0
   26.0400  -14.9100    0.0000 C   0  0  0  0  0  0  0  0  0  0  0  0
   24.7100  -14.9100    0.0000 C   0  0  0  0  0  0  0  0  0  0  0  0
   24.0100  -16.1000    0.0000 C   0  0  0  0  0  0  0  0  0  0  0  0
   28.1400  -18.5500    0.0000 C   0  0  0  0  0  0  0  0  0  0  0  0
   28.8400  -17.3600    0.0000 C   0  0  0  0  0  0  0  0  0  0  0  0
   28.1400  -16.1700    0.0000 C   0  0  0  0  0  0  0  0  0  0  0  0
   26.7400  -20.9300    0.0000 O   0  0  0  0  0  0  0  0  0  0  0  0
   23.1700  -19.1800    0.0000 C   0  0  0  0  0  0  0  0  0  0  0  0
   22.5400  -20.1600    0.0000 C   0  0  0  0  0  0  0  0  0  0  0  0
   21.0700  -19.3200    0.0000 N   0  0  0  0  0  0  0  0  0  0  0  0
   21.0700  -18.0600    0.0000 C   0  0  0  0  0  0  0  0  0  0  0  0
   19.5300  -20.0900    0.0000 C   0  0  0  0  0  0  0  0  0  0  0  0
   21.8400  -18.2700    0.0000 C   0  0  0  0  0  0  0  0  0  0  0  0
   21.8400  -17.2900    0.0000 C   0  0  0  0  0  0  0  0  0  0  0  0
   20.2300  -18.9700    0.0000 C   0  0  0  0  0  0  0  0  0  0  0  0
  1  2  1  0
  2  3  1  0
  3  4  2  0
  4  5  1  0
  5  6  1  1
  1  6  1  0
  4  7  1  0
  7  8  1  0
  8  9  1  0
  9 10  1  0
  5 10  1  0
  3 11  1  0
 11 12  2  0
 12 13  1  0
 13  7  2  0
  2 14  2  0
 16 17  1  0
 16 15  1  0
 17 18  1  0
 17 19  1  0
 15 20  1  0
 18 21  1  0
 19 22  1  0
 20 21  1  0
 20 22  1  0
 15  1  1  6
M  END
