 
     RDKit          2D

 21 24  0  0  1  0  0  0  0  0999 V2000
   11.6200  -18.7600    0.0000 C   0  0  0  0  0  0  0  0  0  0  0  0
   11.6200  -20.1600    0.0000 C   0  0  0  0  0  0  0  0  0  0  0  0
   12.8324  -20.8600    0.0000 C   0  0  0  0  0  0  0  0  0  0  0  0
   14.0449  -20.1600    0.0000 C   0  0  0  0  0  0  0  0  0  0  0  0
   14.0449  -18.7600    0.0000 C   0  0  0  0  0  0  0  0  0  0  0  0
   12.8324  -18.0600    0.0000 C   0  0  0  0  0  0  0  0  0  0  0  0
   15.2573  -20.8600    0.0000 C   0  0  0  0  0  0  0  0  0  0  0  0
   16.4697  -20.1600    0.0000 C   0  0  0  0  0  0  0  0  0  0  0  0
   16.4697  -18.7600    0.0000 C   0  0  0  0  0  0  0  0  0  0  0  0
   15.2573  -18.0600    0.0000 C   0  0  0  0  0  0  0  0  0  0  0  0
   17.6822  -18.0600    0.0000 C   0  0  0  0  0  0  0  0  0  0  0  0
   17.6822  -16.6600    0.0000 C   0  0  0  0  0  0  0  0  0  0  0  0
   16.4697  -15.9600    0.0000 C   0  0  0  0  0  0  0  0  0  0  0  0
   15.2573  -16.6600    0.0000 C   0  0  0  0  0  0  0  0  0  0  0  0
   20.1070  -18.0600    0.0000 C   0  0  0  0  0  0  0  0  0  0  0  0
   20.1070  -16.6600    0.0000 C   0  0  0  0  0  0  0  0  0  0  0  0
   18.8946  -15.9600    0.0000 C   0  0  0  0  0  0  0  0  0  0  0  0
   14.0449  -17.3600    0.0000 C   0  0  0  0  0  0  0  0  0  0  0  0
   17.6822  -15.2600    0.0000 C   0  0  0  0  0  0  0  0  0  0  0  0
   18.8946  -14.5600    0.0000 O   0  0  0  0  0  0  0  0  0  0  0  0
   10.4076  -20.8600    0.0000 O   0  0  0  0  0  0  0  0  0  0  0  0
  1  2  1  0
  2  3  1  0
  4  3  1  1
  4  5  1  0
  5  6  1  0
  1  6  1  0
  4  7  1  0
  7  8  1  0
  9  8  1  6
  9 10  1  0
  5 10  1  0
  9 11  1  0
 11 12  1  0
 12 13  1  0
 13 14  1  0
 10 14  1  1
 11 15  1  1
 15 16  1  0
 16 17  1  0
 12 17  1  0
  5 18  1  1
 12 19  1  1
 17 20  1  1
  2 21  2  0
M  END
