 
     RDKit          2D

 74 78  0  1  1  0  0  0  0  0999 V2000
   27.0190  -23.0527    0.0000 Cl  0  0  0  0  0  0  0  0  0  0  0  0
   27.2299  -20.5437    0.0000 O   0  0  0  0  0  0  0  0  0  0  0  0
   19.1395  -23.6495    0.0000 C   0  0  0  0  0  0  0  0  0  0  0  0
   19.1395  -22.3255    0.0000 C   0  0  0  0  0  0  0  0  0  0  0  0
   20.3241  -24.3462    0.0000 C   0  0  0  0  0  0  0  0  0  0  0  0
   18.0246  -24.2766    0.0000 C   0  0  0  0  0  0  0  0  0  0  0  0
   20.3241  -23.0224    0.0000 C   0  0  0  0  0  0  0  0  0  0  0  0
   18.0246  -21.6984    0.0000 C   0  0  0  0  0  0  0  0  0  0  0  0
   20.3241  -21.6984    0.0000 C   0  0  0  0  0  0  0  0  0  0  0  0
   21.4390  -23.6495    0.0000 C   0  0  0  0  0  0  0  0  0  0  0  0
   20.3241  -25.6005    0.0000 C   0  0  0  0  0  0  0  0  0  0  0  0
   16.7007  -22.9526    0.0000 O   0  0  0  0  0  0  0  0  0  0  0  0
   18.0246  -25.6005    0.0000 C   0  0  0  0  0  0  0  0  0  0  0  0
   22.5538  -23.0224    0.0000 C   0  0  0  0  0  0  0  0  0  0  0  0
   18.0246  -20.3745    0.0000 C   0  0  0  0  0  0  0  0  0  0  0  0
   21.4390  -22.3952    0.0000 C   0  0  0  0  0  0  0  0  0  0  0  0
   20.3241  -20.3745    0.0000 C   0  0  0  0  0  0  0  0  0  0  0  0
   22.5538  -24.3462    0.0000 N   0  0  0  0  0  0  0  0  0  0  0  0
   19.1395  -26.2973    0.0000 C   0  0  0  0  0  0  0  0  0  0  0  0
   16.9098  -26.2973    0.0000 O   0  0  0  0  0  0  0  0  0  0  0  0
   19.2092  -19.7474    0.0000 C   0  0  0  0  0  0  0  0  0  0  0  0
   16.9098  -19.7474    0.0000 O   0  0  0  0  0  0  0  0  0  0  0  0
   23.9527  -24.3462    0.0000 C   0  0  0  0  0  0  0  0  0  0  0  0
   27.2299  -20.5437    0.0000 O   0  0  0  0  0  0  0  0  0  0  0  0
   27.2299  -20.5437    0.0000 O   0  0  0  0  0  0  0  0  0  0  0  0
   22.7751  -18.0380    0.0000 C   0  0  0  0  0  0  0  0  0  0  0  0
   22.7751  -16.6387    0.0000 C   0  0  0  0  0  0  0  0  0  0  0  0
   23.9414  -18.7377    0.0000 C   0  0  0  0  0  0  0  0  0  0  0  0
   21.5624  -18.7377    0.0000 C   0  0  0  0  0  0  0  0  0  0  0  0
   21.5624  -15.9389    0.0000 C   0  0  0  0  0  0  0  0  0  0  0  0
   23.9880  -15.9389    0.0000 C   0  0  0  0  0  0  0  0  0  0  0  0
   23.9414  -20.1371    0.0000 C   0  0  0  0  0  0  0  0  0  0  0  0
   25.2008  -18.0380    0.0000 N   0  0  0  0  0  0  0  0  0  0  0  0
   20.3496  -18.0380    0.0000 C   0  0  0  0  0  0  0  0  0  0  0  0
   20.3496  -16.6387    0.0000 C   0  0  0  0  0  0  0  0  0  0  0  0
   25.2008  -16.6387    0.0000 C   0  0  0  0  0  0  0  0  0  0  0  0
   25.1541  -20.8368    0.0000 C   0  0  0  0  0  0  0  0  0  0  0  0
   19.1368  -18.7377    0.0000 O   0  0  0  0  0  0  0  0  0  0  0  0
   19.1368  -15.9389    0.0000 O   0  0  0  0  0  0  0  0  0  0  0  0
   26.3670  -20.1371    0.0000 C   0  0  0  0  0  0  0  0  0  0  0  0
   25.1541  -22.2363    0.0000 C   0  0  0  0  0  0  0  0  0  0  0  0
   17.9240  -18.0380    0.0000 C   0  0  0  0  0  0  0  0  0  0  0  0
   17.9240  -16.6387    0.0000 C   0  0  0  0  0  0  0  0  0  0  0  0
   27.5797  -20.8368    0.0000 C   0  0  0  0  0  0  0  0  0  0  0  0
   26.3669  -22.9359    0.0000 C   0  0  0  0  0  0  0  0  0  0  0  0
   27.5797  -22.2363    0.0000 C   0  0  0  0  0  0  0  0  0  0  0  0
   28.7926  -20.0905    0.0000 O   0  0  0  0  0  0  0  0  0  0  0  0
   28.7926  -22.8893    0.0000 O   0  0  0  0  0  0  0  0  0  0  0  0
   30.0064  -20.7468    0.0000 C   0  0  0  0  0  0  0  0  0  0  0  0
   29.9669  -22.1638    0.0000 C   0  0  0  0  0  0  0  0  0  0  0  0
   34.1144  -21.4905    0.0000 Cl  0  0  0  0  0  0  0  0  0  0  0  0
   17.6971  -16.7898    0.0000 C   0  0  0  0  0  0  0  0  0  0  0  0
   17.6971  -15.5305    0.0000 C   0  0  0  0  0  0  0  0  0  0  0  0
   18.8165  -17.4894    0.0000 C   0  0  0  0  0  0  0  0  0  0  0  0
   16.5777  -17.4894    0.0000 C   0  0  0  0  0  0  0  0  0  0  0  0
   18.8865  -16.1602    0.0000 C   0  0  0  0  0  0  0  0  0  0  0  0
   16.5777  -14.8309    0.0000 C   0  0  0  0  0  0  0  0  0  0  0  0
   18.8865  -14.8309    0.0000 C   0  0  0  0  0  0  0  0  0  0  0  0
   20.0058  -16.7898    0.0000 C   0  0  0  0  0  0  0  0  0  0  0  0
   18.8165  -18.7487    0.0000 C   0  0  0  0  0  0  0  0  0  0  0  0
   15.2485  -16.0902    0.0000 O   0  0  0  0  0  0  0  0  0  0  0  0
   16.5777  -18.7487    0.0000 C   0  0  0  0  0  0  0  0  0  0  0  0
   21.1952  -16.1602    0.0000 C   0  0  0  0  0  0  0  0  0  0  0  0
   16.5777  -13.5016    0.0000 C   0  0  0  0  0  0  0  0  0  0  0  0
   20.0058  -15.5305    0.0000 C   0  0  0  0  0  0  0  0  0  0  0  0
   18.8865  -13.5016    0.0000 C   0  0  0  0  0  0  0  0  0  0  0  0
   21.1952  -17.4894    0.0000 N   0  0  0  0  0  0  0  0  0  0  0  0
   17.6971  -19.4483    0.0000 C   0  0  0  0  0  0  0  0  0  0  0  0
   15.4583  -19.4483    0.0000 O   0  0  0  0  0  0  0  0  0  0  0  0
   17.6971  -12.8720    0.0000 C   0  0  0  0  0  0  0  0  0  0  0  0
   15.4583  -12.8720    0.0000 O   0  0  0  0  0  0  0  0  0  0  0  0
   14.3390  -13.5016    0.0000 C   0  0  0  0  0  0  0  0  0  0  0  0
   22.5245  -17.4894    0.0000 C   0  0  0  0  0  0  0  0  0  0  0  0
   22.9442  -14.2012    0.0000 Cl  0  0  0  0  0  0  0  0  0  0  0  0
  3  4  1  0
  3  5  1  0
  3  6  1  0
  3  7  1  1
  4  8  2  0
  4  9  1  0
  5 10  1  0
  5 11  1  6
  6 12  1  6
  6 13  1  0
  7 14  1  0
  8 15  1  0
  9 16  1  0
  9 17  2  0
 10 18  1  0
 11 19  2  0
 13 20  1  6
 15 21  2  0
 15 22  1  0
  8 12  1  0
 10 16  1  1
 13 19  1  0
 14 18  1  0
 17 21  1  0
 18 23  1  0
 26 27  1  0
 26 28  1  0
 26 29  2  0
 27 30  2  0
 27 31  1  0
 28 32  1  0
 28 33  2  0
 29 34  1  0
 30 35  1  0
 31 36  2  0
 32 37  1  0
 34 38  1  0
 35 39  1  0
 37 40  2  0
 37 41  1  0
 38 42  1  0
 39 43  1  0
 40 44  1  0
 41 45  2  0
 44 46  2  0
 44 47  1  0
 46 48  1  0
 33 36  1  0
 34 35  2  0
 45 46  1  0
 47 49  1  0
 48 50  1  0
 52 53  1  0
 52 54  1  0
 52 55  1  0
 52 56  1  1
 53 57  2  0
 53 58  1  0
 54 59  1  0
 54 60  1  6
 55 61  1  6
 55 62  1  0
 56 63  1  0
 57 64  1  0
 58 65  1  0
 58 66  2  0
 59 67  1  0
 60 68  2  0
 62 69  1  6
 64 70  2  0
 64 71  1  0
 71 72  1  0
 57 61  1  0
 59 65  1  1
 62 68  1  0
 63 67  1  0
 66 70  1  0
 67 73  1  0
M  CHG  2  67   1  74  -1
M  STY  1   1 MUL
M  SLB  1   1   1
M  SCN  1   1 HT 
M  SAL   1  3   2  24  25
M  SPA   1  1   2
M  SDI   1  4   25.0600  -21.4200   25.0600  -19.5300
M  SDI   1  4   27.9300  -19.5300   27.9300  -21.4200
M  SMT   1 3
M  END
