3476-50-4.mol
     RDKit          2D

149154  0  0  0  0  0  0  0  0999 V2000
    2.9040   -3.2780    0.0000 N   0  0  0  0  0  0  0  0  0  0  0  0
    3.5860   -2.9370    0.0000 C   0  0  0  0  0  0  0  0  0  0  0  0
    2.1340   -2.1010    0.0000 C   0  0  0  0  0  0  0  0  0  0  0  0
    7.8430    0.3300    0.0000 C   0  0  0  0  0  0  0  0  0  0  0  0
    1.4300   -1.6940    0.0000 N   0  0  0  0  0  0  0  0  0  0  0  0
   -3.6300    4.1800    0.0000 C   0  0  0  0  0  0  0  0  0  0  0  0
    2.1340   -2.9370    0.0000 C   0  0  0  0  0  0  0  0  0  0  0  0
    2.8270    3.8720    0.0000 C   0  0  0  0  0  0  0  0  0  0  0  0
   -5.7420    3.7510    0.0000 C   0  0  0  0  0  0  0  0  0  0  0  0
    4.2460    3.0690    0.0000 C   0  0  0  0  0  0  0  0  0  0  0  0
    0.6380    4.1470    0.0000 C   0  0  0  0  0  0  0  0  0  0  0  0
   -1.5180    3.7620    0.0000 C   0  0  0  0  0  0  0  0  0  0  0  0
    5.7310    1.4960    0.0000 C   0  0  0  0  0  0  0  0  0  0  0  0
   -5.8080   -1.0010    0.0000 C   0  0  0  0  0  0  0  0  0  0  0  0
   -3.6300   -0.6050    0.0000 C   0  0  0  0  0  0  0  0  0  0  0  0
   -5.0380    4.1690    0.0000 N   0  0  0  0  0  0  0  0  0  0  0  0
   -4.3340    3.7730    0.0000 C   0  0  0  0  0  0  0  0  0  0  0  0
    8.7890   -0.7590    0.0000 N   0  0  0  0  0  0  0  0  0  0  0  0
    1.3640    3.7840    0.0000 N   0  0  0  0  0  0  0  0  0  0  0  0
    3.5200    4.2790    0.0000 N   0  0  0  0  0  0  0  0  0  0  0  0
    5.7420    0.6820    0.0000 N   0  0  0  0  0  0  0  0  0  0  0  0
    7.9640   -0.5390    0.0000 C   0  0  0  0  0  0  0  0  0  0  0  0
   -2.9370    3.7510    0.0000 N   0  0  0  0  0  0  0  0  0  0  0  0
   -0.8030    4.1470    0.0000 N   0  0  0  0  0  0  0  0  0  0  0  0
    4.9830    2.7170    0.0000 N   0  0  0  0  0  0  0  0  0  0  0  0
   -4.3560   -0.9790    0.0000 N   0  0  0  0  0  0  0  0  0  0  0  0
   -6.5450   -0.6380    0.0000 N   0  0  0  0  0  0  0  0  0  0  0  0
    2.0790    4.2680    0.0000 C   0  0  0  0  0  0  0  0  0  0  0  0
    1.3970   -0.8690    0.0000 C   0  0  0  0  0  0  0  0  0  0  0  0
    0.6490   -0.4840    0.0000 C   0  0  0  0  0  0  0  0  0  0  0  0
    6.4130   -0.5390    0.0000 C   0  0  0  0  0  0  0  0  0  0  0  0
    6.4020    0.2750    0.0000 C   0  0  0  0  0  0  0  0  0  0  0  0
    2.9260    6.3470    0.0000 N   0  0  0  0  0  0  0  0  0  0  0  0
    4.2350    3.8830    0.0000 C   0  0  0  0  0  0  0  0  0  0  0  0
   -6.4460    4.1360    0.0000 C   0  0  0  0  0  0  0  0  0  0  0  0
    1.4850    1.4630    0.0000 C   0  0  0  0  0  0  0  0  0  0  0  0
    4.2790   -3.3660    0.0000 C   0  0  0  0  0  0  0  0  0  0  0  0
    8.6240    0.6160    0.0000 C   0  0  0  0  0  0  0  0  0  0  0  0
    7.1830    0.6710    0.0000 C   0  0  0  0  0  0  0  0  0  0  0  0
    2.7940    5.5000    0.0000 C   0  0  0  0  0  0  0  0  0  0  0  0
   -7.1390    3.7070    0.0000 N   0  0  0  0  0  0  0  0  0  0  0  0
   -7.9860   -0.6490    0.0000 C   0  0  0  0  0  0  0  0  0  0  0  0
    5.0050   -2.9700    0.0000 N   0  0  0  0  0  0  0  0  0  0  0  0
   -2.1890   -0.5940    0.0000 N   0  0  0  0  0  0  0  0  0  0  0  0
   -0.0770    3.7180    0.0000 C   0  0  0  0  0  0  0  0  0  0  0  0
    2.0790    5.1040    0.0000 C   0  0  0  0  0  0  0  0  0  0  0  0
   -7.8540    4.0810    0.0000 C   0  0  0  0  0  0  0  0  0  0  0  0
   -2.2220    4.1910    0.0000 C   0  0  0  0  0  0  0  0  0  0  0  0
    4.9830   -2.1890    0.0000 C   0  0  0  0  0  0  0  0  0  0  0  0
   -1.4630   -0.9680    0.0000 C   0  0  0  0  0  0  0  0  0  0  0  0
   -0.0330   -0.9130    0.0000 N   0  0  0  0  0  0  0  0  0  0  0  0
    5.7200   -0.9570    0.0000 N   0  0  0  0  0  0  0  0  0  0  0  0
    4.1580    5.7530    0.0000 N   0  0  0  0  0  0  0  0  0  0  0  0
   -5.0820   -0.5610    0.0000 C   0  0  0  0  0  0  0  0  0  0  0  0
    4.9830    1.9030    0.0000 C   0  0  0  0  0  0  0  0  0  0  0  0
    3.7620    6.4570    0.0000 C   0  0  0  0  0  0  0  0  0  0  0  0
    9.1740   -0.0110    0.0000 C   0  0  0  0  0  0  0  0  0  0  0  0
   -2.8930   -1.0450    0.0000 C   0  0  0  0  0  0  0  0  0  0  0  0
   -7.2380   -1.0670    0.0000 C   0  0  0  0  0  0  0  0  0  0  0  0
    1.4960    0.6380    0.0000 N   0  0  0  0  0  0  0  0  0  0  0  0
   -0.7480    1.6390    0.0000 C   0  0  0  0  0  0  0  0  0  0  0  0
    3.5640   -2.1560    0.0000 O   0  0  0  0  0  0  0  0  0  0  0  0
    2.8380   -1.6610    0.0000 O   0  0  0  0  0  0  0  0  0  0  0  0
    3.5310    5.1700    0.0000 C   0  0  0  0  0  0  0  0  0  0  0  0
   -3.6190    5.0270    0.0000 O   0  0  0  0  0  0  0  0  0  0  0  0
    2.8380    3.0360    0.0000 O   0  0  0  0  0  0  0  0  0  0  0  0
   -5.7310    2.9370    0.0000 O   0  0  0  0  0  0  0  0  0  0  0  0
    3.5200    2.6290    0.0000 O   0  0  0  0  0  0  0  0  0  0  0  0
   -5.8080   -1.8040    0.0000 O   0  0  0  0  0  0  0  0  0  0  0  0
   -3.6300    0.2090    0.0000 O   0  0  0  0  0  0  0  0  0  0  0  0
    6.4460    1.9360    0.0000 O   0  0  0  0  0  0  0  0  0  0  0  0
   -1.5180    2.9590    0.0000 O   0  0  0  0  0  0  0  0  0  0  0  0
    0.6270    4.9720    0.0000 O   0  0  0  0  0  0  0  0  0  0  0  0
   -6.4460    4.9830    0.0000 C   0  0  0  0  0  0  0  0  0  0  0  0
    4.9500    4.2900    0.0000 C   0  0  0  0  0  0  0  0  0  0  0  0
    0.6600    0.3190    0.0000 O   0  0  0  0  0  0  0  0  0  0  0  0
    7.2160   -0.9460    0.0000 O   0  0  0  0  0  0  0  0  0  0  0  0
   -7.9860    0.1650    0.0000 O   0  0  0  0  0  0  0  0  0  0  0  0
   -8.5690    3.6630    0.0000 C   0  0  0  0  0  0  0  0  0  0  0  0
   -7.8540    4.8950    0.0000 O   0  0  0  0  0  0  0  0  0  0  0  0
    4.2460   -1.7380    0.0000 O   0  0  0  0  0  0  0  0  0  0  0  0
   -1.4630   -1.8150    0.0000 O   0  0  0  0  0  0  0  0  0  0  0  0
   -0.0220    1.2430    0.0000 O   0  0  0  0  0  0  0  0  0  0  0  0
   -0.0880    2.8930    0.0000 C   0  0  0  0  0  0  0  0  0  0  0  0
    2.1340    1.8920    0.0000 N   0  0  0  0  0  0  0  0  0  0  0  0
   -0.7700   -0.5170    0.0000 C   0  0  0  0  0  0  0  0  0  0  0  0
    5.7200   -1.7710    0.0000 C   0  0  0  0  0  0  0  0  0  0  0  0
    0.7150    1.8590    0.0000 N   0  0  0  0  0  0  0  0  0  0  0  0
   -8.7120   -1.0340    0.0000 N   0  0  0  0  0  0  0  0  0  0  0  0
    2.7390   -4.0920    0.0000 C   0  0  0  0  0  0  0  0  0  0  0  0
    2.0680   -0.4180    0.0000 C   0  0  0  0  0  0  0  0  0  0  0  0
   -0.7480    2.4860    0.0000 C   0  0  0  0  0  0  0  0  0  0  0  0
   -5.7640    5.4230    0.0000 C   0  0  0  0  0  0  0  0  0  0  0  0
   -2.2330    5.0270    0.0000 C   0  0  0  0  0  0  0  0  0  0  0  0
   -4.3450    6.2810    0.0000 C   0  0  0  0  0  0  0  0  0  0  0  0
   -1.4740    1.2980    0.0000 O   0  0  0  0  0  0  0  0  0  0  0  0
    5.6650    3.9050    0.0000 C   0  0  0  0  0  0  0  0  0  0  0  0
   -8.8000   -3.5530    0.0000 N   0  0  0  0  0  0  0  0  0  0  0  0
   -1.4960    6.2480    0.0000 S   0  0  0  0  0  0  0  0  0  0  0  0
   -4.3340    2.9590    0.0000 C   0  0  0  0  0  0  0  0  0  0  0  0
   -7.8650    2.4420    0.0000 N   0  0  0  0  0  0  0  0  0  0  0  0
   -5.0380    5.0380    0.0000 C   0  0  0  0  0  0  0  0  0  0  0  0
   -5.7640    6.2700    0.0000 C   0  0  0  0  0  0  0  0  0  0  0  0
   -4.3670   -4.3560    0.0000 N   0  0  0  0  0  0  0  0  0  0  0  0
   -6.5670    2.7390    0.0000 N   0  0  0  0  0  0  0  0  0  0  0  0
    5.6870   -6.6880    0.0000 N   0  0  0  0  0  0  0  0  0  0  0  0
   -8.8330   -4.3780    0.0000 N   0  0  0  0  0  0  0  0  0  0  0  0
   -4.3340    5.4560    0.0000 C   0  0  0  0  0  0  0  0  0  0  0  0
   -5.0820    6.6880    0.0000 C   0  0  0  0  0  0  0  0  0  0  0  0
    1.5620   -3.4100    0.0000 C   0  0  0  0  0  0  0  0  0  0  0  0
   -3.6300    6.6770    0.0000 O   0  0  0  0  0  0  0  0  0  0  0  0
   -3.6300    2.5520    0.0000 O   0  0  0  0  0  0  0  0  0  0  0  0
   -8.5690    2.8490    0.0000 C   0  0  0  0  0  0  0  0  0  0  0  0
    1.9250   -4.1800    0.0000 C   0  0  0  0  0  0  0  0  0  0  0  0
    8.8880    1.3750    0.0000 C   0  0  0  0  0  0  0  0  0  0  0  0
    4.2900   -4.1690    0.0000 C   0  0  0  0  0  0  0  0  0  0  0  0
   -1.4960    5.4450    0.0000 C   0  0  0  0  0  0  0  0  0  0  0  0
   -5.0710    0.2750    0.0000 C   0  0  0  0  0  0  0  0  0  0  0  0
    4.2900    1.4960    0.0000 C   0  0  0  0  0  0  0  0  0  0  0  0
   -2.8930   -1.8700    0.0000 C   0  0  0  0  0  0  0  0  0  0  0  0
   -7.2380   -1.9030    0.0000 C   0  0  0  0  0  0  0  0  0  0  0  0
    9.9770    0.1430    0.0000 C   0  0  0  0  0  0  0  0  0  0  0  0
    2.8600    1.4740    0.0000 C   0  0  0  0  0  0  0  0  0  0  0  0
   -9.4930   -3.1240    0.0000 C   0  0  0  0  0  0  0  0  0  0  0  0
   -7.9970   -3.1900    0.0000 C   0  0  0  0  0  0  0  0  0  0  0  0
   -4.3450   -3.5310    0.0000 C   0  0  0  0  0  0  0  0  0  0  0  0
   -6.5670    1.9030    0.0000 C   0  0  0  0  0  0  0  0  0  0  0  0
   -9.5370   -4.7740    0.0000 C   0  0  0  0  0  0  0  0  0  0  0  0
    5.6870   -5.8630    0.0000 C   0  0  0  0  0  0  0  0  0  0  0  0
   -0.7810    6.6770    0.0000 C   0  0  0  0  0  0  0  0  0  0  0  0
    2.7940   -0.8140    0.0000 C   0  0  0  0  0  0  0  0  0  0  0  0
    2.0680    0.3960    0.0000 C   0  0  0  0  0  0  0  0  0  0  0  0
    6.3800    4.3010    0.0000 C   0  0  0  0  0  0  0  0  0  0  0  0
    5.6540    3.0800    0.0000 C   0  0  0  0  0  0  0  0  0  0  0  0
   -7.9970   -2.3430    0.0000 C   0  0  0  0  0  0  0  0  0  0  0  0
    3.5530    1.9030    0.0000 C   0  0  0  0  0  0  0  0  0  0  0  0
    4.9830   -4.6090    0.0000 C   0  0  0  0  0  0  0  0  0  0  0  0
   -5.8080    0.6710    0.0000 C   0  0  0  0  0  0  0  0  0  0  0  0
   -3.6190   -2.2880    0.0000 C   0  0  0  0  0  0  0  0  0  0  0  0
  -10.2410   -3.5530    0.0000 C   0  0  0  0  0  0  0  0  0  0  0  0
   -5.8190    1.4960    0.0000 C   0  0  0  0  0  0  0  0  0  0  0  0
  -10.2410   -4.3670    0.0000 C   0  0  0  0  0  0  0  0  0  0  0  0
    4.9940   -5.3900    0.0000 C   0  0  0  0  0  0  0  0  0  0  0  0
   -3.6300   -3.1130    0.0000 C   0  0  0  0  0  0  0  0  0  0  0  0
    9.6800    1.5180    0.0000 C   0  0  0  0  0  0  0  0  0  0  0  0
   10.2410    0.9460    0.0000 C   0  0  0  0  0  0  0  0  0  0  0  0
    6.4130    2.6620    0.0000 C   0  0  0  0  0  0  0  0  0  0  0  0
    7.1060    3.8940    0.0000 C   0  0  0  0  0  0  0  0  0  0  0  0
    7.1170    3.0690    0.0000 C   0  0  0  0  0  0  0  0  0  0  0  0
  2  1  1  0
  7  1  1  0
 90  1  1  0
 37  2  1  0
 62  2  2  0
  7  3  1  1
  5  3  1  0
 63  3  2  0
  4 39  1  0
 22  4  2  0
 38  4  1  0
 29  5  1  6
  6 23  1  0
 17  6  1  0
 65  6  2  0
110  7  1  0
  8 20  1  0
 28  8  1  0
 66  8  2  0
  9 16  1  0
 35  9  1  0
 67  9  2  0
 10 25  1  0
 34 10  1  0
 68 10  2  0
 11 19  1  0
 45 11  1  0
 73 11  2  0
 12 24  1  0
 48 12  1  0
 72 12  2  0
 13 21  1  0
 55 13  1  0
 71 13  2  0
 14 54  1  0
 27 14  1  0
 69 14  2  0
 15 58  1  0
 26 15  1  0
 70 15  2  0
 17 16  1  0
 17100  1  6
 18 22  1  0
 18 57  1  0
 28 19  1  0
 34 20  1  0
 32 21  1  0
 48 23  1  0
 45 24  1  0
 55 25  1  0
 54 26  1  0
 59 27  1  0
 28 46  1  1
 30 29  1  0
 91 29  1  0
 51 30  1  0
 76 30  2  0
 31 52  1  0
 32 31  1  0
 77 31  2  0
 32 39  1  1
 33 40  1  0
 56 33  2  0
 34 75  1  1
 35 41  1  0
 35 74  1  1
 36 85  1  0
 60 36  2  0
 88 36  1  0
 37 43  1  0
 37116  1  1
 57 38  2  0
115 38  1  0
 40 46  1  0
 64 40  2  0
 47 41  1  0
 42 59  1  0
 78 42  2  0
 89 42  1  0
 49 43  1  0
 44 50  1  0
 58 44  1  0
 45 84  1  6
 79 47  1  0
 80 47  2  0
 48 94  1  1
 81 49  2  0
 87 49  1  0
 50 86  1  0
 82 50  2  0
 86 51  1  0
 52 87  1  0
 53 64  1  0
 53 56  1  0
 54118  1  6
 55119  1  6
122 57  1  0
 58120  1  1
 59121  1  1
 61 92  1  0
 83 61  2  0
 96 61  1  0
 93 74  1  0
 97 75  1  0
113 79  1  0
 92 84  1  0
 85123  1  0
114 90  1  0
131 91  1  0
132 91  1  0
102 93  1  0
103 93  2  0
117 94  1  0
 95109  2  0
111 95  1  0
 95108  1  0
133 97  2  0
134 97  1  0
 98125  1  0
124 98  1  0
 99117  1  0
130 99  1  0
112100  1  0
101113  1  0
108102  2  0
109103  1  0
104126  1  0
105127  1  0
106129  1  0
107128  1  0
110114  1  0
145115  2  0
137116  1  0
138118  1  0
136119  1  0
139120  1  0
135121  1  0
122146  2  0
123136  1  0
140124  1  0
125135  1  0
126144  1  0
127141  1  0
128142  1  0
129143  1  0
148133  1  0
147134  2  0
143137  1  0
141138  1  0
144139  1  0
142140  1  0
146145  1  0
149147  1  0
148149  2  0
M  END
