 
     RDKit          2D

 28 31  0  0  1  0  0  0  0  0999 V2000
   25.9700  -17.5700    0.0000 C   0  0  0  0  0  0  0  0  0  0  0  0
   24.7800  -18.2000    0.0000 C   0  0  0  0  0  0  0  0  0  0  0  0
   27.1600  -18.2700    0.0000 C   0  0  0  0  0  0  0  0  0  0  0  0
   24.7800  -19.6000    0.0000 C   0  0  0  0  0  0  0  0  0  0  0  0
   23.5900  -17.5000    0.0000 C   0  0  0  0  0  0  0  0  0  0  0  0
   24.7800  -16.8000    0.0000 C   0  0  0  0  0  0  0  0  0  0  0  0
   27.1600  -19.6000    0.0000 C   0  0  0  0  0  0  0  0  0  0  0  0
   28.3500  -18.9000    0.0000 C   0  0  0  0  0  0  0  0  0  0  0  0
   23.5900  -20.2300    0.0000 C   0  0  0  0  0  0  0  0  0  0  0  0
   22.4000  -18.2000    0.0000 C   0  0  0  0  0  0  0  0  0  0  0  0
   22.4000  -19.5300    0.0000 C   0  0  0  0  0  0  0  0  0  0  0  0
   23.5900  -21.5600    0.0000 C   0  0  0  0  0  0  0  0  0  0  0  0
   21.2800  -17.5000    0.0000 O   0  0  0  0  0  0  0  0  0  0  0  0
   21.2100  -20.2300    0.0000 C   0  0  0  0  0  0  0  0  0  0  0  0
   22.4000  -20.9300    0.0000 Cl  0  0  0  0  0  0  0  0  0  0  0  0
   22.4000  -22.2600    0.0000 C   0  0  0  0  0  0  0  0  0  0  0  0
   21.2100  -21.5600    0.0000 C   0  0  0  0  0  0  0  0  0  0  0  0
   20.0900  -19.5300    0.0000 C   0  0  0  0  0  0  0  0  0  0  0  0
   21.2100  -18.8300    0.0000 C   0  0  0  0  0  0  0  0  0  0  0  0
   20.0900  -22.2600    0.0000 C   0  0  0  0  0  0  0  0  0  0  0  0
   18.9000  -20.2300    0.0000 C   0  0  0  0  0  0  0  0  0  0  0  0
   18.9000  -21.5600    0.0000 C   0  0  0  0  0  0  0  0  0  0  0  0
   17.7100  -22.2600    0.0000 O   0  0  0  0  0  0  0  0  0  0  0  0
   27.3223  -17.2077    0.0000 O   0  0  0  0  0  0  0  0  0  0  0  0
   25.9700  -16.1700    0.0000 C   0  0  0  0  0  0  0  0  0  0  0  0
   27.1824  -15.4700    0.0000 C   0  0  0  0  0  0  0  0  0  0  0  0
   24.7576  -15.4700    0.0000 O   0  0  0  0  0  0  0  0  0  0  0  0
   28.3779  -16.1604    0.0000 O   0  0  0  0  0  0  0  0  0  0  0  0
  1  2  1  0
  1  3  1  0
  2  4  1  0
  2  5  1  0
  2  6  1  1
  3  7  1  0
  3  8  1  1
  4  9  1  0
  5 10  1  0
  9 11  1  0
  9 12  1  6
 10 13  1  1
 11 14  1  0
 11 15  1  6
 12 16  1  0
 14 17  1  0
 14 18  1  0
 14 19  1  1
 17 20  2  0
 18 21  2  0
 20 22  1  0
 22 23  2  0
  4  7  1  1
 10 11  1  0
 16 17  1  0
 21 22  1  0
  1 24  1  6
  1 25  1  0
 25 26  1  0
 25 27  2  0
 26 28  1  0
M  END
