 
     RDKit          2D

190192  0  2  1  0  0  0  0  0999 V2000
   32.5996  -18.3280    0.0000 O   0  0  0  0  0  0  0  0  0  0  0  0
   33.9812  -18.3280    0.0000 S   0  0  0  0  0  0  0  0  0  0  0  0
   33.9812  -19.7097    0.0000 O   0  0  0  0  0  0  0  0  0  0  0  0
   35.3630  -18.3280    0.0000 O   0  0  0  0  0  0  0  0  0  0  0  0
   33.9812  -16.9463    0.0000 O   0  0  0  0  0  0  0  0  0  0  0  0
   20.2300  -20.8600    0.0000 C   0  0  0  0  0  0  0  0  0  0  0  0
   20.2300  -22.2600    0.0000 C   0  0  0  0  0  0  0  0  0  0  0  0
   21.4900  -22.9600    0.0000 C   0  0  0  0  0  0  0  0  0  0  0  0
   22.6800  -22.2600    0.0000 C   0  0  0  0  0  0  0  0  0  0  0  0
   22.6800  -20.8600    0.0000 O   0  0  0  0  0  0  0  0  0  0  0  0
   21.4900  -20.1600    0.0000 C   0  0  0  0  0  0  0  0  0  0  0  0
   21.4900  -18.8300    0.0000 O   0  0  0  0  0  0  0  0  0  0  0  0
   19.0400  -20.1600    0.0000 N   0  0  0  0  0  0  0  0  0  0  0  0
   21.4900  -24.3600    0.0000 O   0  0  0  0  0  0  0  0  0  0  0  0
   24.1500  -22.9600    0.0000 C   0  0  0  0  0  0  0  0  0  0  0  0
   19.0400  -22.9600    0.0000 O   0  0  0  0  0  0  0  0  0  0  0  0
   23.8700  -16.6600    0.0000 C   0  0  0  0  0  0  0  0  0  0  0  0
   23.8700  -18.0600    0.0000 C   0  0  0  0  0  0  0  0  0  0  0  0
   25.1300  -18.7600    0.0000 C   0  0  0  0  0  0  0  0  0  0  0  0
   26.3200  -18.0600    0.0000 C   0  0  0  0  0  0  0  0  0  0  0  0
   26.3200  -16.6600    0.0000 C   0  0  0  0  0  0  0  0  0  0  0  0
   25.1300  -15.9600    0.0000 C   0  0  0  0  0  0  0  0  0  0  0  0
   27.5100  -15.9600    0.0000 O   0  0  0  0  0  0  0  0  0  0  0  0
   22.4000  -15.9600    0.0000 O   0  0  0  0  0  0  0  0  0  0  0  0
   25.1300  -20.1600    0.0000 O   0  0  0  0  0  0  0  0  0  0  0  0
   25.1300  -14.6300    0.0000 N   0  0  0  0  0  0  0  0  0  0  0  0
   22.7500  -18.7600    0.0000 O   0  0  0  0  0  0  0  0  0  0  0  0
   27.5100  -18.7600    0.0000 N   0  0  0  0  0  0  0  0  0  0  0  0
   20.6500  -17.7100    0.0000 C   0  0  0  0  0  0  0  0  0  0  0  0
   21.0700  -16.3800    0.0000 C   0  0  0  0  0  0  0  0  0  0  0  0
   19.9500  -15.5400    0.0000 O   0  0  0  0  0  0  0  0  0  0  0  0
   18.8300  -16.3800    0.0000 C   0  0  0  0  0  0  0  0  0  0  0  0
   19.2500  -17.7100    0.0000 C   0  0  0  0  0  0  0  0  0  0  0  0
   17.5700  -15.9600    0.0000 C   0  0  0  0  0  0  0  0  0  0  0  0
   18.4800  -18.8300    0.0000 C   0  0  0  0  0  0  0  0  0  0  0  0
   26.3200  -13.9300    0.0000 C   0  0  0  0  0  0  0  0  0  0  0  0
   26.3200  -12.5300    0.0000 N   0  0  0  0  0  0  0  0  0  0  0  0
   27.5100  -14.6300    0.0000 N   0  0  0  0  0  0  0  0  0  0  0  0
   17.9200  -20.8600    0.0000 C   0  0  0  0  0  0  0  0  0  0  0  0
   25.4100  -22.2600    0.0000 O   0  0  0  0  0  0  0  0  0  0  0  0
   27.5100  -20.4400    0.0000 C   0  0  0  0  0  0  0  0  0  0  0  0
   26.3200  -21.1400    0.0000 N   0  0  0  0  0  0  0  0  0  0  0  0
   28.7000  -21.1400    0.0000 N   0  0  0  0  0  0  0  0  0  0  0  0
   17.0800  -18.6900    0.0000 O   0  0  0  0  0  0  0  0  0  0  0  0
   19.2500  -19.1100    0.0000 O   0  0  0  0  0  0  0  0  0  0  0  0
   32.5996  -18.3280    0.0000 O   0  0  0  0  0  0  0  0  0  0  0  0
   33.9812  -18.3280    0.0000 S   0  0  0  0  0  0  0  0  0  0  0  0
   33.9812  -19.7097    0.0000 O   0  0  0  0  0  0  0  0  0  0  0  0
   35.3630  -18.3280    0.0000 O   0  0  0  0  0  0  0  0  0  0  0  0
   33.9812  -16.9463    0.0000 O   0  0  0  0  0  0  0  0  0  0  0  0
   32.5996  -18.3280    0.0000 O   0  0  0  0  0  0  0  0  0  0  0  0
   33.9812  -18.3280    0.0000 S   0  0  0  0  0  0  0  0  0  0  0  0
   33.9812  -19.7097    0.0000 O   0  0  0  0  0  0  0  0  0  0  0  0
   35.3630  -18.3280    0.0000 O   0  0  0  0  0  0  0  0  0  0  0  0
   33.9812  -16.9463    0.0000 O   0  0  0  0  0  0  0  0  0  0  0  0
   20.2300  -20.8600    0.0000 C   0  0  0  0  0  0  0  0  0  0  0  0
   20.2300  -22.2600    0.0000 C   0  0  0  0  0  0  0  0  0  0  0  0
   21.4900  -22.9600    0.0000 C   0  0  0  0  0  0  0  0  0  0  0  0
   22.6800  -22.2600    0.0000 C   0  0  0  0  0  0  0  0  0  0  0  0
   24.1500  -22.9600    0.0000 C   0  0  0  0  0  0  0  0  0  0  0  0
   25.4100  -22.2600    0.0000 O   0  0  0  0  0  0  0  0  0  0  0  0
   22.6800  -20.8600    0.0000 O   0  0  0  0  0  0  0  0  0  0  0  0
   21.4900  -20.1600    0.0000 C   0  0  0  0  0  0  0  0  0  0  0  0
   21.4900  -18.8300    0.0000 O   0  0  0  0  0  0  0  0  0  0  0  0
   20.6500  -17.7100    0.0000 C   0  0  0  0  0  0  0  0  0  0  0  0
   21.0700  -16.3800    0.0000 C   0  0  0  0  0  0  0  0  0  0  0  0
   19.9500  -15.5400    0.0000 O   0  0  0  0  0  0  0  0  0  0  0  0
   18.8300  -16.3800    0.0000 C   0  0  0  0  0  0  0  0  0  0  0  0
   19.2500  -17.7100    0.0000 C   0  0  0  0  0  0  0  0  0  0  0  0
   18.4800  -18.8300    0.0000 C   0  0  0  0  0  0  0  0  0  0  0  0
   17.0800  -18.6900    0.0000 O   0  0  0  0  0  0  0  0  0  0  0  0
   19.2500  -19.1100    0.0000 O   0  0  0  0  0  0  0  0  0  0  0  0
   17.5700  -15.9600    0.0000 C   0  0  0  0  0  0  0  0  0  0  0  0
   22.4000  -15.9600    0.0000 O   0  0  0  0  0  0  0  0  0  0  0  0
   23.8700  -16.6600    0.0000 C   0  0  0  0  0  0  0  0  0  0  0  0
   23.8700  -18.0600    0.0000 C   0  0  0  0  0  0  0  0  0  0  0  0
   22.7500  -18.7600    0.0000 O   0  0  0  0  0  0  0  0  0  0  0  0
   25.1300  -18.7600    0.0000 C   0  0  0  0  0  0  0  0  0  0  0  0
   26.3200  -18.0600    0.0000 C   0  0  0  0  0  0  0  0  0  0  0  0
   27.5100  -18.7600    0.0000 N   0  0  0  0  0  0  0  0  0  0  0  0
   27.5100  -20.4400    0.0000 C   0  0  0  0  0  0  0  0  0  0  0  0
   26.3200  -21.1400    0.0000 N   0  0  0  0  0  0  0  0  0  0  0  0
   28.7000  -21.1400    0.0000 N   0  0  0  0  0  0  0  0  0  0  0  0
   26.3200  -16.6600    0.0000 C   0  0  0  0  0  0  0  0  0  0  0  0
   25.1300  -15.9600    0.0000 C   0  0  0  0  0  0  0  0  0  0  0  0
   25.1300  -14.6300    0.0000 N   0  0  0  0  0  0  0  0  0  0  0  0
   26.3200  -13.9300    0.0000 C   0  0  0  0  0  0  0  0  0  0  0  0
   26.3200  -12.5300    0.0000 N   0  0  0  0  0  0  0  0  0  0  0  0
   27.5100  -14.6300    0.0000 N   0  0  0  0  0  0  0  0  0  0  0  0
   27.5100  -15.9600    0.0000 O   0  0  0  0  0  0  0  0  0  0  0  0
   25.1300  -20.1600    0.0000 O   0  0  0  0  0  0  0  0  0  0  0  0
   21.4900  -24.3600    0.0000 O   0  0  0  0  0  0  0  0  0  0  0  0
   19.0400  -22.9600    0.0000 O   0  0  0  0  0  0  0  0  0  0  0  0
   19.0400  -20.1600    0.0000 N   0  0  0  0  0  0  0  0  0  0  0  0
   17.9200  -20.8600    0.0000 C   0  0  0  0  0  0  0  0  0  0  0  0
   16.9199  -15.1376    0.0000 O   0  0  0  0  0  0  0  0  0  0  0  0
   18.3197  -15.1376    0.0000 S   0  0  0  0  0  0  0  0  0  0  0  0
   18.3126  -16.5374    0.0000 O   0  0  0  0  0  0  0  0  0  0  0  0
   19.7196  -15.1376    0.0000 O   0  0  0  0  0  0  0  0  0  0  0  0
   18.3126  -13.7377    0.0000 O   0  0  0  0  0  0  0  0  0  0  0  0
    7.9748  -17.3139    0.0000 C   0  0  0  0  0  0  0  0  0  0  0  0
    8.3840  -16.0619    0.0000 C   0  0  0  0  0  0  0  0  0  0  0  0
    6.6623  -17.3139    0.0000 C   0  0  0  0  0  0  0  0  0  0  0  0
    9.6542  -18.4157    0.0000 O   0  0  0  0  0  0  0  0  0  0  0  0
    9.9192  -14.7014    0.0000 O   0  0  0  0  0  0  0  0  0  0  0  0
    7.3126  -15.2974    0.0000 O   0  0  0  0  0  0  0  0  0  0  0  0
    6.2652  -16.0619    0.0000 C   0  0  0  0  0  0  0  0  0  0  0  0
    5.3562  -18.0424    0.0000 C   0  0  0  0  0  0  0  0  0  0  0  0
    6.6684  -18.5720    0.0000 O   0  0  0  0  0  0  0  0  0  0  0  0
    8.5706  -20.4924    0.0000 C   0  0  0  0  0  0  0  0  0  0  0  0
    9.8890  -13.0759    0.0000 C   0  0  0  0  0  0  0  0  0  0  0  0
    5.0190  -15.6525    0.0000 C   0  0  0  0  0  0  0  0  0  0  0  0
    4.2303  -17.3741    0.0000 O   0  0  0  0  0  0  0  0  0  0  0  0
    8.5706  -21.8167    0.0000 C   0  0  0  0  0  0  0  0  0  0  0  0
    7.4208  -19.8364    0.0000 O   0  0  0  0  0  0  0  0  0  0  0  0
    8.7572  -12.4078    0.0000 C   0  0  0  0  0  0  0  0  0  0  0  0
   11.0388  -12.4078    0.0000 C   0  0  0  0  0  0  0  0  0  0  0  0
    7.4208  -22.4850    0.0000 C   0  0  0  0  0  0  0  0  0  0  0  0
    6.2891  -20.4924    0.0000 C   0  0  0  0  0  0  0  0  0  0  0  0
    8.7572  -11.0835    0.0000 C   0  0  0  0  0  0  0  0  0  0  0  0
    6.9273  -13.2264    0.0000 N   0  0  0  0  0  0  0  0  0  0  0  0
   11.0388  -11.0835    0.0000 C   0  0  0  0  0  0  0  0  0  0  0  0
   12.1705  -13.0580    0.0000 O   0  0  0  0  0  0  0  0  0  0  0  0
    6.2891  -21.8167    0.0000 C   0  0  0  0  0  0  0  0  0  0  0  0
    7.4208  -23.7973    0.0000 O   0  0  0  0  0  0  0  0  0  0  0  0
    5.1575  -19.8364    0.0000 C   0  0  0  0  0  0  0  0  0  0  0  0
    9.8890  -10.4272    0.0000 C   0  0  0  0  0  0  0  0  0  0  0  0
    7.8409  -10.3508    0.0000 O   0  0  0  0  0  0  0  0  0  0  0  0
    5.7955  -12.5703    0.0000 C   0  0  0  0  0  0  0  0  0  0  0  0
   12.1705  -10.4213    0.0000 O   0  0  0  0  0  0  0  0  0  0  0  0
    5.1513  -22.4670    0.0000 O   0  0  0  0  0  0  0  0  0  0  0  0
    4.0196  -20.4924    0.0000 O   0  0  0  0  0  0  0  0  0  0  0  0
    9.8830   -9.1149    0.0000 N   0  0  0  0  0  0  0  0  0  0  0  0
    4.6578  -13.2204    0.0000 N   0  0  0  0  0  0  0  0  0  0  0  0
    5.8015  -11.2581    0.0000 N   0  0  0  0  0  0  0  0  0  0  0  0
    8.7513   -8.4648    0.0000 C   0  0  0  0  0  0  0  0  0  0  0  0
    8.7452   -7.1585    0.0000 N   0  0  0  0  0  0  0  0  0  0  0  0
    7.6195   -9.1209    0.0000 N   0  0  0  0  0  0  0  0  0  0  0  0
    9.7777  -22.5113    0.0000 N   0  0  0  0  0  0  0  0  0  0  0  0
   10.9870  -21.8106    0.0000 C   0  0  0  0  0  0  0  0  0  0  0  0
   16.9199  -15.1376    0.0000 O   0  0  0  0  0  0  0  0  0  0  0  0
   18.3197  -15.1376    0.0000 S   0  0  0  0  0  0  0  0  0  0  0  0
   18.3126  -16.5374    0.0000 O   0  0  0  0  0  0  0  0  0  0  0  0
   19.7196  -15.1376    0.0000 O   0  0  0  0  0  0  0  0  0  0  0  0
   18.3126  -13.7377    0.0000 O   0  0  0  0  0  0  0  0  0  0  0  0
   16.9199  -15.1376    0.0000 O   0  0  0  0  0  0  0  0  0  0  0  0
   18.3197  -15.1376    0.0000 S   0  0  0  0  0  0  0  0  0  0  0  0
   18.3126  -16.5374    0.0000 O   0  0  0  0  0  0  0  0  0  0  0  0
   19.7196  -15.1376    0.0000 O   0  0  0  0  0  0  0  0  0  0  0  0
   18.3126  -13.7377    0.0000 O   0  0  0  0  0  0  0  0  0  0  0  0
    7.9748  -17.3139    0.0000 C   0  0  0  0  0  0  0  0  0  0  0  0
    8.3840  -16.0619    0.0000 C   0  0  0  0  0  0  0  0  0  0  0  0
    9.9192  -14.7014    0.0000 O   0  0  0  0  0  0  0  0  0  0  0  0
    9.8890  -13.0759    0.0000 C   0  0  0  0  0  0  0  0  0  0  0  0
    8.7572  -12.4078    0.0000 C   0  0  0  0  0  0  0  0  0  0  0  0
    8.7572  -11.0835    0.0000 C   0  0  0  0  0  0  0  0  0  0  0  0
    9.8890  -10.4272    0.0000 C   0  0  0  0  0  0  0  0  0  0  0  0
    9.8830   -9.1149    0.0000 N   0  0  0  0  0  0  0  0  0  0  0  0
    8.7513   -8.4648    0.0000 C   0  0  0  0  0  0  0  0  0  0  0  0
    8.7452   -7.1585    0.0000 N   0  0  0  0  0  0  0  0  0  0  0  0
    7.6195   -9.1209    0.0000 N   0  0  0  0  0  0  0  0  0  0  0  0
   11.0388  -11.0835    0.0000 C   0  0  0  0  0  0  0  0  0  0  0  0
   11.0388  -12.4078    0.0000 C   0  0  0  0  0  0  0  0  0  0  0  0
   12.1705  -13.0580    0.0000 O   0  0  0  0  0  0  0  0  0  0  0  0
   12.1705  -10.4213    0.0000 O   0  0  0  0  0  0  0  0  0  0  0  0
    7.8409  -10.3508    0.0000 O   0  0  0  0  0  0  0  0  0  0  0  0
    6.9273  -13.2264    0.0000 N   0  0  0  0  0  0  0  0  0  0  0  0
    5.7955  -12.5703    0.0000 C   0  0  0  0  0  0  0  0  0  0  0  0
    4.6578  -13.2204    0.0000 N   0  0  0  0  0  0  0  0  0  0  0  0
    5.8015  -11.2581    0.0000 N   0  0  0  0  0  0  0  0  0  0  0  0
    7.3126  -15.2974    0.0000 O   0  0  0  0  0  0  0  0  0  0  0  0
    6.2652  -16.0619    0.0000 C   0  0  0  0  0  0  0  0  0  0  0  0
    6.6623  -17.3139    0.0000 C   0  0  0  0  0  0  0  0  0  0  0  0
    5.3562  -18.0424    0.0000 C   0  0  0  0  0  0  0  0  0  0  0  0
    4.2303  -17.3741    0.0000 O   0  0  0  0  0  0  0  0  0  0  0  0
    6.6684  -18.5720    0.0000 O   0  0  0  0  0  0  0  0  0  0  0  0
    5.0190  -15.6525    0.0000 C   0  0  0  0  0  0  0  0  0  0  0  0
    9.6542  -18.4157    0.0000 O   0  0  0  0  0  0  0  0  0  0  0  0
    8.5706  -20.4924    0.0000 C   0  0  0  0  0  0  0  0  0  0  0  0
    8.5706  -21.8167    0.0000 C   0  0  0  0  0  0  0  0  0  0  0  0
    7.4208  -22.4850    0.0000 C   0  0  0  0  0  0  0  0  0  0  0  0
    6.2891  -21.8167    0.0000 C   0  0  0  0  0  0  0  0  0  0  0  0
    5.1513  -22.4670    0.0000 O   0  0  0  0  0  0  0  0  0  0  0  0
    6.2891  -20.4924    0.0000 C   0  0  0  0  0  0  0  0  0  0  0  0
    7.4208  -19.8364    0.0000 O   0  0  0  0  0  0  0  0  0  0  0  0
    5.1575  -19.8364    0.0000 C   0  0  0  0  0  0  0  0  0  0  0  0
    4.0196  -20.4924    0.0000 O   0  0  0  0  0  0  0  0  0  0  0  0
    7.4208  -23.7973    0.0000 O   0  0  0  0  0  0  0  0  0  0  0  0
    9.7777  -22.5113    0.0000 N   0  0  0  0  0  0  0  0  0  0  0  0
   10.9870  -21.8106    0.0000 C   0  0  0  0  0  0  0  0  0  0  0  0
  1  2  1  0
  2  3  2  0
  2  4  1  0
  2  5  2  0
 46 47  1  0
 47 48  2  0
 47 49  1  0
 47 50  2  0
 51 52  1  0
 52 53  2  0
 52 54  1  0
 52 55  2  0
  6  7  1  0
 18 27  1  1
  9 15  1  1
 20 28  1  1
  7  8  1  0
  7 16  1  1
  8  9  1  0
  9 10  1  0
 10 11  1  0
 29 30  1  0
 30 31  1  0
 31 32  1  0
 32 33  1  0
 33 29  1  0
 29 12  1  6
 11  6  1  0
 32 34  1  6
 33 35  1  0
 30 24  1  1
 11 12  1  6
 26 36  1  0
 17 18  1  0
 36 37  2  0
 18 19  1  0
 36 38  1  0
 19 20  1  0
 13 39  1  0
 20 21  1  0
 15 40  1  0
 21 22  1  0
 28 41  1  0
 22 17  1  0
 41 42  1  0
 41 43  2  0
 21 23  1  6
 35 44  1  0
  6 13  1  6
 33 45  1  6
 17 24  1  6
 19 25  1  6
  8 14  1  6
 22 26  1  1
 56 57  1  0
 76 77  1  1
 59 60  1  1
 79 80  1  1
 57 58  1  0
 57 93  1  1
 58 59  1  0
 59 62  1  0
 62 63  1  0
 65 66  1  0
 66 67  1  0
 67 68  1  0
 68 69  1  0
 69 65  1  0
 65 64  1  6
 63 56  1  0
 68 73  1  6
 69 70  1  0
 66 74  1  1
 63 64  1  6
 86 87  1  0
 75 76  1  0
 87 88  2  0
 76 78  1  0
 87 89  1  0
 78 79  1  0
 94 95  1  0
 79 84  1  0
 60 61  1  0
 84 85  1  0
 80 81  1  0
 85 75  1  0
 81 82  1  0
 81 83  2  0
 84 90  1  6
 70 71  1  0
 56 94  1  6
 69 72  1  6
 75 74  1  6
 78 91  1  6
 58 92  1  6
 85 86  1  1
 96 97  1  0
 97 98  2  0
 97 99  1  0
 97100  2  0
141142  1  0
142143  2  0
142144  1  0
142145  2  0
146147  1  0
147148  2  0
147149  1  0
147150  2  0
101102  1  0
101103  1  0
101104  1  6
102105  1  1
102106  1  0
103107  1  0
103108  1  0
103109  1  6
110104  1  1
111105  1  6
107112  1  6
108113  2  0
110114  1  0
110115  1  0
111116  1  0
111117  1  0
114118  1  0
115119  1  0
116120  1  0
116121  1  1
117122  1  0
117123  1  1
118124  1  0
118125  1  6
119126  1  6
120127  1  0
120128  1  6
121129  1  0
122130  1  6
124131  1  1
126132  1  0
127133  1  1
129134  1  0
129135  2  0
133136  1  0
136137  2  0
136138  1  0
106107  1  0
119124  1  0
122127  1  0
114139  1  1
139140  1  0
151152  1  0
151173  1  0
151178  1  6
152153  1  1
152171  1  0
173172  1  0
173174  1  0
173176  1  6
179178  1  1
154153  1  6
172177  1  6
174175  2  0
179180  1  0
179185  1  0
154155  1  0
154163  1  0
180181  1  0
185184  1  0
155156  1  0
155167  1  1
163162  1  0
163164  1  1
181182  1  0
181188  1  6
184186  1  6
156157  1  0
156166  1  6
167168  1  0
162165  1  6
182183  1  1
186187  1  0
157158  1  1
168169  1  0
168170  2  0
158159  1  0
159160  2  0
159161  1  0
171172  1  0
184182  1  0
162157  1  0
180189  1  1
189190  1  0
M  STY  2   1 MUL   2 MUL
M  SLB  2   1   1   2   2
M  SCN  2   1 HT    2 HT 
M  SAL   1 15   1   2   3   4   5  46  47  48  49  50  51  52  53  54  55
M  SPA   1  5   1   2   3   4   5
M  SDI   1  4   31.1500  -20.5800   31.1500  -16.0300
M  SDI   1  4   36.5400  -16.0300   36.5400  -20.5800
M  SMT   1 3
M  SAL   2 15   6   7   8   9  10  11  12  13  14  15  16  17  18  19  20
M  SAL   2 15  21  22  23  24  25  26  27  28  29  30  31  32  33  34  35
M  SAL   2 15  36  37  38  39  40  41  42  43  44  45  56  57  58  59  60
M  SAL   2 15  61  62  63  64  65  66  67  68  69  70  71  72  73  74  75
M  SAL   2 15  76  77  78  79  80  81  82  83  84  85  86  87  88  89  90
M  SAL   2  5  91  92  93  94  95
M  SPA   2 15   6   7   8   9  15  40  10  11  12  29  30  31  32  33  35
M  SPA   2 15  44  45  34  24  17  18  27  19  20  28  41  42  43  21  22
M  SPA   2 10  26  36  37  38  23  25  14  16  13  39
M  SDI   2  4   15.8200  -24.6400   15.8200  -12.1100
M  SDI   2  4   29.8900  -12.1100   29.8900  -24.6400
M  SMT   2 2
M  END
