71205-22-6.MOL
     RDKit          2D

  8  4  0  0  0  0  0  0  0  0999 V2000
    0.0730    0.7524    0.0000 Si  0  0  0  0  0  4  0  0  0  0  0  0
    0.8980    0.7524    0.0000 O   0  0  0  0  0  0  0  0  0  0  0  0
   -0.8980    0.7524    0.0000 O   0  0  0  0  0  0  0  0  0  0  0  0
    0.0730    0.1908    0.0000 O   0  0  0  0  0  0  0  0  0  0  0  0
    0.0730    1.3139    0.0000 O   0  0  0  0  0  0  0  0  0  0  0  0
    0.0002   -0.3106    0.0000 Al  0  0  0  0  0  3  0  0  0  0  0  0
    0.0002   -0.8122    0.0000 Mg  0  0  0  0  0  2  0  0  0  0  0  0
    0.0002   -1.3139    0.0000 O   0  0  0  0  0  0  0  0  0  0  0  0
  1  2  1  0
  1  3  1  0
  1  4  1  0
  1  5  1  0
M  END
