 
     RDKit          2D

 25 24  0  0  1  0  0  0  0  0999 V2000
   31.2735  -17.8125    0.0000 C   0  0  0  0  0  0  0  0  0  0  0  0
   31.7644  -19.1450    0.0000 C   0  0  0  0  0  0  0  0  0  0  0  0
   32.3956  -16.9710    0.0000 O   0  0  0  0  0  0  0  0  0  0  0  0
   33.1670  -19.1450    0.0000 C   0  0  0  0  0  0  0  0  0  0  0  0
   33.5878  -17.8125    0.0000 C   0  0  0  0  0  0  0  0  0  0  0  0
   33.9384  -20.2670    0.0000 O   0  0  0  0  0  0  0  0  0  0  0  0
   34.5695  -16.8307    0.0000 O   0  0  0  0  0  0  0  0  0  0  0  0
   30.0814  -17.1112    0.0000 C   0  0  0  0  0  0  0  0  0  0  0  0
   28.8892  -17.8125    0.0000 C   0  0  0  0  0  0  0  0  0  0  0  0
   30.9229  -20.2670    0.0000 O   0  0  0  0  0  0  0  0  0  0  0  0
   30.0814  -15.7087    0.0000 O   0  0  0  0  0  0  0  0  0  0  0  0
   27.6269  -17.1112    0.0000 O   0  0  0  0  0  0  0  0  0  0  0  0
   15.0737  -17.6040    0.0000 C   0  0  0  0  0  0  0  0  0  0  0  0
   15.4852  -18.9449    0.0000 C   0  0  0  0  0  0  0  0  0  0  0  0
   16.8876  -18.9679    0.0000 C   0  0  0  0  0  0  0  0  0  0  0  0
   17.3429  -17.6413    0.0000 C   0  0  0  0  0  0  0  0  0  0  0  0
   16.2218  -16.7984    0.0000 O   0  0  0  0  0  0  0  0  0  0  0  0
   18.5327  -16.9710    0.0000 C   0  0  0  0  0  0  0  0  0  0  0  0
   19.7474  -17.6723    0.0000 C   0  0  0  0  0  0  0  0  0  0  0  0
   20.9620  -16.9710    0.0000 O   0  0  0  0  0  0  0  0  0  0  0  0
   17.6809  -20.0978    0.0000 O   0  0  0  0  0  0  0  0  0  0  0  0
   14.6507  -20.0547    0.0000 O   0  0  0  0  0  0  0  0  0  0  0  0
   13.7467  -17.1486    0.0000 O   0  0  0  0  0  0  0  0  0  0  0  0
   18.5401  -15.5687    0.0000 O   0  0  0  0  0  0  0  0  0  0  0  0
   24.0503  -17.7424    0.0000 Ca  0  0  0  0  0 15  0  0  0  0  0  0
  1  2  1  0
  1  3  1  1
  2  4  2  0
  3  5  1  0
  4  6  1  0
  5  7  2  0
  4  5  1  0
  1  8  1  0
  8  9  1  0
  2 10  1  0
  8 11  1  6
  9 12  1  0
 13 14  1  0
 14 15  2  0
 15 16  1  0
 16 17  1  6
 13 17  1  0
 16 18  1  0
 18 19  1  0
 19 20  1  0
 15 21  1  0
 14 22  1  0
 13 23  2  0
 18 24  1  1
M  CHG  3  10  -1  21  -1  25   2
M  END
