 
     RDKit          2D

127142  0  0  0  0  0  0  0  0999 V2000
    7.4200  -19.5300    0.0000 C   0  0  0  0  0  0  0  0  0  0  0  0
    7.4200  -20.9300    0.0000 C   0  0  0  0  0  0  0  0  0  0  0  0
    8.6324  -21.6300    0.0000 C   0  0  0  0  0  0  0  0  0  0  0  0
    9.8449  -20.9300    0.0000 C   0  0  0  0  0  0  0  0  0  0  0  0
    9.8449  -19.5300    0.0000 C   0  0  0  0  0  0  0  0  0  0  0  0
    8.6324  -18.8300    0.0000 C   0  0  0  0  0  0  0  0  0  0  0  0
   11.0760  -18.8190    0.0000 N   0  0  0  0  0  0  0  0  0  0  0  0
   11.0760  -17.4190    0.0000 N   0  0  0  0  0  0  0  0  0  0  0  0
   12.4075  -19.2516    0.0000 C   0  0  0  0  0  0  0  0  0  0  0  0
   13.2304  -18.1190    0.0000 C   0  0  0  0  0  0  0  0  0  0  0  0
   12.4075  -16.9864    0.0000 C   0  0  0  0  0  0  0  0  0  0  0  0
    9.9383  -16.5923    0.0000 C   0  0  0  0  0  0  0  0  0  0  0  0
   12.8313  -15.6814    0.0000 C   0  0  0  0  0  0  0  0  0  0  0  0
   12.8379  -20.5764    0.0000 O   0  0  0  0  0  0  0  0  0  0  0  0
   14.6300  -18.1190    0.0000 C   0  0  0  0  0  0  0  0  0  0  0  0
   15.3252  -16.9148    0.0000 C   0  0  0  0  0  0  0  0  0  0  0  0
   15.3347  -19.3397    0.0000 C   0  0  0  0  0  0  0  0  0  0  0  0
   20.7987  -14.2382    0.0000 C   0  0  0  0  0  0  0  0  0  0  0  0
   20.7919  -15.5582    0.0000 N   0  0  0  0  0  0  0  0  0  0  0  0
   21.9436  -13.5783    0.0000 C   0  0  0  0  0  0  0  0  0  0  0  0
   19.6404  -13.5783    0.0000 O   0  0  0  0  0  0  0  0  0  0  0  0
   20.7853  -12.9184    0.0000 O   0  0  0  0  0  0  0  0  0  0  0  0
   21.9301  -16.2250    0.0000 C   0  0  0  0  0  0  0  0  0  0  0  0
   18.5022  -15.5649    0.0000 C   0  0  0  0  0  0  0  0  0  0  0  0
   23.0817  -14.2450    0.0000 N   0  0  0  0  0  0  0  0  0  0  0  0
   21.9436  -12.2583    0.0000 C   0  0  0  0  0  0  0  0  0  0  0  0
   18.5022  -14.2382    0.0000 C   0  0  0  0  0  0  0  0  0  0  0  0
   23.0749  -15.5717    0.0000 C   0  0  0  0  0  0  0  0  0  0  0  0
   21.9301  -17.5448    0.0000 C   0  0  0  0  0  0  0  0  0  0  0  0
   17.5595  -16.5011    0.0000 O   0  0  0  0  0  0  0  0  0  0  0  0
   24.2266  -13.5918    0.0000 C   0  0  0  0  0  0  0  0  0  0  0  0
   24.2332  -12.2651    0.0000 C   0  0  0  0  0  0  0  0  0  0  0  0
   16.8119  -13.5043    0.0000 N   0  0  0  0  0  0  0  0  0  0  0  0
   18.4956  -12.8241    0.0000 C   0  0  0  0  0  0  0  0  0  0  0  0
   24.2266  -16.2384    0.0000 O   0  0  0  0  0  0  0  0  0  0  0  0
   23.0614  -18.2115    0.0000 C   0  0  0  0  0  0  0  0  0  0  0  0
   15.3169  -14.2247    0.0000 C   0  0  0  0  0  0  0  0  0  0  0  0
   23.0480  -19.5315    0.0000 C   0  0  0  0  0  0  0  0  0  0  0  0
   24.2063  -17.5583    0.0000 C   0  0  0  0  0  0  0  0  0  0  0  0
   15.3169  -15.5582    0.0000 C   0  0  0  0  0  0  0  0  0  0  0  0
   14.1653  -13.5648    0.0000 O   0  0  0  0  0  0  0  0  0  0  0  0
   24.1862  -20.1983    0.0000 C   0  0  0  0  0  0  0  0  0  0  0  0
   25.3376  -18.2250    0.0000 C   0  0  0  0  0  0  0  0  0  0  0  0
   14.1653  -16.2115    0.0000 C   0  0  0  0  0  0  0  0  0  0  0  0
   16.4551  -16.2115    0.0000 C   0  0  0  0  0  0  0  0  0  0  0  0
   25.3310  -19.5450    0.0000 C   0  0  0  0  0  0  0  0  0  0  0  0
   14.1653  -17.5381    0.0000 C   0  0  0  0  0  0  0  0  0  0  0  0
   16.4551  -17.5381    0.0000 N   0  0  0  0  0  0  0  0  0  0  0  0
   13.0138  -18.1914    0.0000 C   0  0  0  0  0  0  0  0  0  0  0  0
   15.3169  -18.2049    0.0000 C   0  0  0  0  0  0  0  0  0  0  0  0
   17.6066  -18.2049    0.0000 C   0  0  0  0  0  0  0  0  0  0  0  0
   13.0138  -19.5247    0.0000 C   0  0  0  0  0  0  0  0  0  0  0  0
   11.8690  -17.5313    0.0000 C   0  0  0  0  0  0  0  0  0  0  0  0
   15.3101  -19.5315    0.0000 C   0  0  0  0  0  0  0  0  0  0  0  0
   14.1586  -20.1848    0.0000 C   0  0  0  0  0  0  0  0  0  0  0  0
   11.8690  -20.1848    0.0000 C   0  0  0  0  0  0  0  0  0  0  0  0
   10.7242  -18.1914    0.0000 C   0  0  0  0  0  0  0  0  0  0  0  0
   14.1586  -21.5046    0.0000 C   0  0  0  0  0  0  0  0  0  0  0  0
   11.8690  -21.5046    0.0000 N   0  0  0  0  0  0  0  0  0  0  0  0
   10.7242  -19.5247    0.0000 C   0  0  0  0  0  0  0  0  0  0  0  0
   30.7344  -17.4708    0.0000 C   0  0  0  0  0  0  0  0  0  0  0  0
   31.9466  -16.7704    0.0000 C   0  0  0  0  0  0  0  0  0  0  0  0
   29.5222  -16.7771    0.0000 C   0  0  0  0  0  0  0  0  0  0  0  0
   30.7412  -18.8716    0.0000 O   0  0  0  0  0  0  0  0  0  0  0  0
   33.1588  -17.4641    0.0000 C   0  0  0  0  0  0  0  0  0  0  0  0
   31.9399  -15.3629    0.0000 O   0  0  0  0  0  0  0  0  0  0  0  0
   28.3100  -17.4776    0.0000 O   0  0  0  0  0  0  0  0  0  0  0  0
   29.5155  -15.3696    0.0000 O   0  0  0  0  0  0  0  0  0  0  0  0
   34.3710  -16.7636    0.0000 O   0  0  0  0  0  0  0  0  0  0  0  0
   33.1519  -18.8648    0.0000 O   0  0  0  0  0  0  0  0  0  0  0  0
   20.7987  -14.2382    0.0000 C   0  0  0  0  0  0  0  0  0  0  0  0
   20.7919  -15.5582    0.0000 N   0  0  0  0  0  0  0  0  0  0  0  0
   21.9301  -16.2250    0.0000 C   0  0  0  0  0  0  0  0  0  0  0  0
   23.0749  -15.5717    0.0000 C   0  0  0  0  0  0  0  0  0  0  0  0
   24.2266  -16.2384    0.0000 O   0  0  0  0  0  0  0  0  0  0  0  0
   23.0817  -14.2450    0.0000 N   0  0  0  0  0  0  0  0  0  0  0  0
   21.9436  -13.5783    0.0000 C   0  0  0  0  0  0  0  0  0  0  0  0
   21.9436  -12.2583    0.0000 C   0  0  0  0  0  0  0  0  0  0  0  0
   24.2332  -12.2651    0.0000 C   0  0  0  0  0  0  0  0  0  0  0  0
   24.2266  -13.5918    0.0000 C   0  0  0  0  0  0  0  0  0  0  0  0
   21.9301  -17.5448    0.0000 C   0  0  0  0  0  0  0  0  0  0  0  0
   23.0614  -18.2115    0.0000 C   0  0  0  0  0  0  0  0  0  0  0  0
   23.0480  -19.5315    0.0000 C   0  0  0  0  0  0  0  0  0  0  0  0
   24.1862  -20.1983    0.0000 C   0  0  0  0  0  0  0  0  0  0  0  0
   25.3310  -19.5450    0.0000 C   0  0  0  0  0  0  0  0  0  0  0  0
   25.3376  -18.2250    0.0000 C   0  0  0  0  0  0  0  0  0  0  0  0
   24.2063  -17.5583    0.0000 C   0  0  0  0  0  0  0  0  0  0  0  0
   18.5022  -15.5649    0.0000 C   0  0  0  0  0  0  0  0  0  0  0  0
   17.5595  -16.5011    0.0000 O   0  0  0  0  0  0  0  0  0  0  0  0
   18.5022  -14.2382    0.0000 C   0  0  0  0  0  0  0  0  0  0  0  0
   19.6404  -13.5783    0.0000 O   0  0  0  0  0  0  0  0  0  0  0  0
   16.8119  -13.5043    0.0000 N   0  0  0  0  0  0  0  0  0  0  0  0
   15.3169  -14.2247    0.0000 C   0  0  0  0  0  0  0  0  0  0  0  0
   15.3169  -15.5582    0.0000 C   0  0  0  0  0  0  0  0  0  0  0  0
   14.1653  -16.2115    0.0000 C   0  0  0  0  0  0  0  0  0  0  0  0
   14.1653  -17.5381    0.0000 C   0  0  0  0  0  0  0  0  0  0  0  0
   13.0138  -18.1914    0.0000 C   0  0  0  0  0  0  0  0  0  0  0  0
   13.0138  -19.5247    0.0000 C   0  0  0  0  0  0  0  0  0  0  0  0
   14.1586  -20.1848    0.0000 C   0  0  0  0  0  0  0  0  0  0  0  0
   14.1586  -21.5046    0.0000 C   0  0  0  0  0  0  0  0  0  0  0  0
   11.8690  -21.5046    0.0000 N   0  0  0  0  0  0  0  0  0  0  0  0
   11.8690  -20.1848    0.0000 C   0  0  0  0  0  0  0  0  0  0  0  0
   10.7242  -19.5247    0.0000 C   0  0  0  0  0  0  0  0  0  0  0  0
   10.7242  -18.1914    0.0000 C   0  0  0  0  0  0  0  0  0  0  0  0
   11.8690  -17.5313    0.0000 C   0  0  0  0  0  0  0  0  0  0  0  0
   15.3101  -19.5315    0.0000 C   0  0  0  0  0  0  0  0  0  0  0  0
   15.3169  -18.2049    0.0000 C   0  0  0  0  0  0  0  0  0  0  0  0
   16.4551  -17.5381    0.0000 N   0  0  0  0  0  0  0  0  0  0  0  0
   16.4551  -16.2115    0.0000 C   0  0  0  0  0  0  0  0  0  0  0  0
   17.6066  -18.2049    0.0000 C   0  0  0  0  0  0  0  0  0  0  0  0
   14.1653  -13.5648    0.0000 O   0  0  0  0  0  0  0  0  0  0  0  0
   18.4956  -12.8241    0.0000 C   0  0  0  0  0  0  0  0  0  0  0  0
   20.7853  -12.9184    0.0000 O   0  0  0  0  0  0  0  0  0  0  0  0
   26.6863  -18.2225    0.0000 C   0  0  0  0  0  0  0  0  0  0  0  0
   26.6863  -19.6480    0.0000 C   0  0  0  0  0  0  0  0  0  0  0  0
   27.8899  -17.5154    0.0000 C   0  0  0  0  0  0  0  0  0  0  0  0
   25.3833  -17.7901    0.0000 N   0  0  0  0  0  0  0  0  0  0  0  0
   27.8899  -20.3317    0.0000 N   0  0  0  0  0  0  0  0  0  0  0  0
   25.3833  -20.0805    0.0000 N   0  0  0  0  0  0  0  0  0  0  0  0
   29.1110  -18.2517    0.0000 N   0  0  0  0  0  0  0  0  0  0  0  0
   27.8899  -16.1365    0.0000 O   0  0  0  0  0  0  0  0  0  0  0  0
   24.5654  -18.9469    0.0000 C   0  0  0  0  0  0  0  0  0  0  0  0
   24.9509  -16.4637    0.0000 C   0  0  0  0  0  0  0  0  0  0  0  0
   29.1110  -19.5955    0.0000 C   0  0  0  0  0  0  0  0  0  0  0  0
   27.8899  -21.7632    0.0000 C   0  0  0  0  0  0  0  0  0  0  0  0
   30.3322  -17.5681    0.0000 C   0  0  0  0  0  0  0  0  0  0  0  0
   30.3613  -20.2967    0.0000 O   0  0  0  0  0  0  0  0  0  0  0  0
  1  2  2  0
  2  3  1  0
  3  4  2  0
  4  5  1  0
  5  6  2  0
  1  6  1  0
  5  7  1  0
  7  8  1  0
  7  9  1  0
  9 10  1  0
 10 11  2  0
  8 11  1  0
  8 12  1  0
 11 13  1  0
  9 14  2  0
 10 15  1  0
 15 16  1  0
 15 17  1  0
 61 62  1  0
 61 63  1  0
 61 64  1  1
 62 65  1  0
 62 66  1  1
 63 67  1  0
 63 68  2  0
 65 69  1  0
 65 70  2  0
 18 19  1  0
 18 20  1  0
 18 21  1  0
 18 22  1  6
 19 23  1  0
 19 24  1  0
 20 25  1  0
 20 26  1  0
 21 27  1  0
 23 28  1  0
 23 29  1  6
 24 30  2  0
 25 31  1  0
 26 32  1  0
 27 33  1  0
 27 34  1  1
 28 35  2  0
 29 36  1  0
 33 37  1  0
 36 38  2  0
 36 39  1  0
 40 37  1  1
 37 41  2  0
 38 42  1  0
 39 43  2  0
 40 44  1  0
 40 45  1  0
 42 46  2  0
 44 47  2  0
 45 48  1  0
 47 49  1  0
 47 50  1  0
 48 51  1  0
 49 52  2  0
 49 53  1  0
 50 54  1  0
 52 55  1  0
 52 56  1  0
 53 57  2  0
 55 58  2  0
 56 59  1  0
 56 60  2  0
 24 27  1  0
 25 28  1  0
 31 32  1  0
 43 46  1  0
 48 50  1  0
 54 55  1  0
 57 60  1  0
 58 59  1  0
 71 72  1  0
 71 77  1  0
 71 91  1  0
 71113  1  6
 72 73  1  0
 72 88  1  0
 77 76  1  0
 77 78  1  0
 91 90  1  0
 73 74  1  0
 73 81  1  6
 88 89  2  0
 76 80  1  0
 78 79  1  0
 90 92  1  0
 90112  1  1
 74 75  2  0
 81 82  1  0
 92 93  1  0
 82 83  2  0
 82 87  1  0
 94 93  1  1
 93111  2  0
 83 84  1  0
 87 86  2  0
 94 95  1  0
 94109  1  0
 84 85  2  0
 95 96  2  0
109108  1  0
 96 97  1  0
 96107  1  0
108110  1  0
 97 98  2  0
 97105  1  0
107106  1  0
 98 99  1  0
 98102  1  0
105104  2  0
 99100  2  0
102101  1  0
102103  2  0
 88 90  1  0
 76 74  1  0
 80 79  1  0
 86 85  1  0
108107  1  0
106 99  1  0
104103  1  0
100101  1  0
114115  2  0
114116  1  0
114117  1  0
115118  1  0
115119  1  0
116120  1  0
116121  2  0
117122  1  0
117123  1  0
118124  1  0
118125  1  0
120126  1  0
124127  2  0
119122  2  0
120124  1  0
M  END
