 
     RDKit          2D

 36 39  0  0  0  0  0  0  0  0999 V2000
   21.1928  -17.0796    0.0000 C   0  0  0  0  0  0  0  0  0  0  0  0
   21.6897  -15.8145    0.0000 N   0  0  0  0  0  0  0  0  0  0  0  0
   20.5391  -14.9868    0.0000 C   0  0  0  0  0  0  0  0  0  0  0  0
   19.3790  -15.7706    0.0000 N   0  0  0  0  0  0  0  0  0  0  0  0
   19.8336  -17.0686    0.0000 C   0  0  0  0  0  0  0  0  0  0  0  0
   20.5108  -13.5697    0.0000 O   0  0  0  0  0  0  0  0  0  0  0  0
   19.0059  -18.2260    0.0000 O   0  0  0  0  0  0  0  0  0  0  0  0
   22.5928  -17.0796    0.0000 C   0  0  0  0  0  0  0  0  0  0  0  0
   23.2971  -18.2998    0.0000 C   0  0  0  0  0  0  0  0  0  0  0  0
   24.6971  -18.2999    0.0000 C   0  0  0  0  0  0  0  0  0  0  0  0
   25.3972  -17.0875    0.0000 C   0  0  0  0  0  0  0  0  0  0  0  0
   24.6928  -15.8673    0.0000 C   0  0  0  0  0  0  0  0  0  0  0  0
   23.2928  -15.8672    0.0000 C   0  0  0  0  0  0  0  0  0  0  0  0
   21.1928  -18.4796    0.0000 C   0  0  0  0  0  0  0  0  0  0  0  0
   19.9931  -19.1723    0.0000 C   0  0  0  0  0  0  0  0  0  0  0  0
   19.9932  -20.5723    0.0000 C   0  0  0  0  0  0  0  0  0  0  0  0
   21.2057  -21.2722    0.0000 C   0  0  0  0  0  0  0  0  0  0  0  0
   22.4053  -20.5795    0.0000 C   0  0  0  0  0  0  0  0  0  0  0  0
   22.4052  -19.1795    0.0000 C   0  0  0  0  0  0  0  0  0  0  0  0
   24.5688  -19.5768    0.0000 C   0  0  0  0  0  0  0  0  0  0  0  0
   25.7739  -18.8690    0.0000 C   0  0  0  0  0  0  0  0  0  0  0  0
   23.3288  -18.8924    0.0000 C   0  0  0  0  0  0  0  0  0  0  0  0
   24.5688  -20.9807    0.0000 C   0  0  0  0  0  0  0  0  0  0  0  0
   25.7679  -20.2728    0.0000 C   0  0  0  0  0  0  0  0  0  0  0  0
   26.9847  -19.5534    0.0000 C   0  0  0  0  0  0  0  0  0  0  0  0
   25.7562  -17.4653    0.0000 C   0  0  0  0  0  0  0  0  0  0  0  0
   22.1238  -19.5768    0.0000 N   0  0  0  0  0  0  0  0  0  0  0  0
   23.3288  -17.4770    0.0000 O   0  0  0  0  0  0  0  0  0  0  0  0
   23.3288  -21.6826    0.0000 N   0  0  0  0  0  0  0  0  0  0  0  0
   25.7621  -21.6826    0.0000 O   0  0  0  0  0  0  0  0  0  0  0  0
   27.1718  -20.2728    0.0000 C   0  0  0  0  0  0  0  0  0  0  0  0
   28.1895  -18.8457    0.0000 C   0  0  0  0  0  0  0  0  0  0  0  0
   26.9612  -16.7574    0.0000 C   0  0  0  0  0  0  0  0  0  0  0  0
   22.1238  -20.9807    0.0000 C   0  0  0  0  0  0  0  0  0  0  0  0
   28.1778  -17.4476    0.0000 C   0  0  0  0  0  0  0  0  0  0  0  0
   20.9130  -21.6766    0.0000 O   0  0  0  0  0  0  0  0  0  0  0  0
  1  2  1  0
  2  3  1  0
  3  4  2  0
  4  5  1  0
  1  5  1  0
  3  6  1  0
  5  7  2  0
  1  8  1  0
  8  9  2  0
  9 10  1  0
 10 11  2  0
 11 12  1  0
 12 13  2  0
  8 13  1  0
  1 14  1  0
 14 15  2  0
 15 16  1  0
 16 17  2  0
 17 18  1  0
 18 19  2  0
 14 19  1  0
 20 21  1  0
 20 22  1  0
 20 23  1  0
 20 24  1  0
 21 25  2  0
 21 26  1  0
 22 27  1  0
 22 28  2  0
 23 29  1  0
 23 30  2  0
 24 31  1  0
 25 32  1  0
 26 33  2  0
 27 34  1  0
 32 35  2  0
 34 36  2  0
 29 34  1  0
 33 35  1  0
M  END
