 
     RDKit          2D

 60 61  0  0  1  0  0  0  0  0999 V2000
   18.8346  -20.3048    0.0000 C   0  0  0  0  0  0  0  0  0  0  0  0
   18.8346  -21.7052    0.0000 C   0  0  0  0  0  0  0  0  0  0  0  0
   17.4343  -19.8847    0.0000 C   0  0  0  0  0  0  0  0  0  0  0  0
   20.0249  -19.6046    0.0000 C   0  0  0  0  0  0  0  0  0  0  0  0
   17.5043  -22.1253    0.0000 C   0  0  0  0  0  0  0  0  0  0  0  0
   20.0249  -22.4054    0.0000 C   0  0  0  0  0  0  0  0  0  0  0  0
   16.6641  -21.0050    0.0000 C   0  0  0  0  0  0  0  0  0  0  0  0
   21.2152  -20.3048    0.0000 C   0  0  0  0  0  0  0  0  0  0  0  0
   17.0842  -23.5256    0.0000 O   0  0  0  0  0  0  0  0  0  0  0  0
   21.2152  -21.7052    0.0000 C   0  0  0  0  0  0  0  0  0  0  0  0
   22.4755  -22.4054    0.0000 C   0  0  0  0  0  0  0  0  0  0  0  0
   23.6658  -21.7052    0.0000 C   0  0  0  0  0  0  0  0  0  0  0  0
   22.4755  -23.8057    0.0000 O   0  0  0  0  0  0  0  0  0  0  0  0
   24.9261  -22.4054    0.0000 C   0  0  0  0  0  0  0  0  0  0  0  0
   24.9261  -23.8057    0.0000 C   0  0  0  0  0  0  0  0  0  0  0  0
   26.1164  -24.5059    0.0000 C   0  0  0  0  0  0  0  0  0  0  0  0
   26.1164  -25.9061    0.0000 C   0  0  0  0  0  0  0  0  0  0  0  0
   24.9261  -26.6063    0.0000 C   0  0  0  0  0  0  0  0  0  0  0  0
   23.6658  -25.9061    0.0000 C   0  0  0  0  0  0  0  0  0  0  0  0
   23.6658  -24.5059    0.0000 C   0  0  0  0  0  0  0  0  0  0  0  0
   16.9442  -18.5544    0.0000 O   0  0  0  0  0  0  0  0  0  0  0  0
   22.6156  -20.3048    0.0000 C   0  0  0  0  0  0  0  0  0  0  0  0
   23.8059  -19.6046    0.0000 C   0  0  0  0  0  0  0  0  0  0  0  0
   24.9961  -20.3048    0.0000 C   0  0  0  0  0  0  0  0  0  0  0  0
   26.1864  -19.6046    0.0000 C   0  0  0  0  0  0  0  0  0  0  0  0
   27.3767  -20.3048    0.0000 C   0  0  0  0  0  0  0  0  0  0  0  0
   28.5670  -19.6046    0.0000 O   0  0  0  0  0  0  0  0  0  0  0  0
   29.7573  -20.3048    0.0000 C   0  0  0  0  0  0  0  0  0  0  0  0
   30.9476  -19.6046    0.0000 C   0  0  0  0  0  0  0  0  0  0  0  0
   27.3767  -21.7052    0.0000 O   0  0  0  0  0  0  0  0  0  0  0  0
   29.7573  -21.7052    0.0000 C   0  0  0  0  0  0  0  0  0  0  0  0
   27.1995  -15.4829    0.0000 C   0  0  0  0  0  0  0  0  0  0  0  0
   25.5020  -15.4829    0.0000 C   0  0  0  0  0  0  0  0  0  0  0  0
   27.8361  -16.6145    0.0000 C   0  0  0  0  0  0  0  0  0  0  0  0
   24.8653  -16.6852    0.0000 C   0  0  0  0  0  0  0  0  0  0  0  0
   27.1995  -17.8170    0.0000 O   0  0  0  0  0  0  0  0  0  0  0  0
   29.2508  -16.6145    0.0000 O   0  0  0  0  0  0  0  0  0  0  0  0
   23.4508  -16.6852    0.0000 O   0  0  0  0  0  0  0  0  0  0  0  0
   25.5020  -17.8170    0.0000 O   0  0  0  0  0  0  0  0  0  0  0  0
   14.1400  -15.9600    0.0000 C   0  0  0  0  0  0  0  0  0  0  0  0
   15.3300  -16.6600    0.0000 C   0  0  0  0  0  0  0  0  0  0  0  0
   12.9500  -16.6600    0.0000 O   0  0  0  0  0  0  0  0  0  0  0  0
   16.5200  -15.9600    0.0000 C   0  0  0  0  0  0  0  0  0  0  0  0
   17.7100  -16.6600    0.0000 N   0  0  0  0  0  0  0  0  0  0  0  0
   18.9000  -15.9600    0.0000 C   0  0  0  0  0  0  0  0  0  0  0  0
   20.1600  -16.6600    0.0000 C   0  0  0  0  0  0  0  0  0  0  0  0
   18.9000  -14.5600    0.0000 C   0  0  0  0  0  0  0  0  0  0  0  0
   20.1600  -15.2600    0.0000 C   0  0  0  0  0  0  0  0  0  0  0  0
   15.3300  -18.0600    0.0000 O   0  0  0  0  0  0  0  0  0  0  0  0
   12.9500  -18.0600    0.0000 C   0  0  0  0  0  0  0  0  0  0  0  0
   11.8300  -18.9700    0.0000 C   0  0  0  0  0  0  0  0  0  0  0  0
   12.2500  -20.2300    0.0000 N   0  0  0  0  0  0  0  0  0  0  0  0
   13.6500  -20.2300    0.0000 S   0  0  0  0  0  0  0  0  0  0  0  0
   14.0700  -18.9700    0.0000 N   0  0  0  0  0  0  0  0  0  0  0  0
    8.1200  -16.8000    0.0000 O   0  0  0  0  0  0  0  0  0  0  0  0
    8.1200  -18.2700    0.0000 C   0  0  0  0  0  0  0  0  0  0  0  0
    9.3100  -18.9700    0.0000 C   0  0  0  0  0  0  0  0  0  0  0  0
   10.5700  -18.2700    0.0000 N   0  0  0  0  0  0  0  0  0  0  0  0
   10.5700  -16.8000    0.0000 C   0  0  0  0  0  0  0  0  0  0  0  0
    9.3100  -16.1000    0.0000 C   0  0  0  0  0  0  0  0  0  0  0  0
 12 14  1  0
  5  7  1  0
 14 15  1  0
  1  2  1  0
  1  3  1  0
  1  4  1  6
  2  5  1  0
  2  6  1  1
 15 16  2  0
 16 17  1  0
 17 18  2  0
 18 19  1  0
 19 20  2  0
 20 15  1  0
  3  7  1  0
  4  8  1  0
  5  9  1  6
  6 10  1  0
 10 11  1  0
 11 12  1  0
 11 13  1  6
  3 21  1  6
  8 22  2  0
 23 24  1  0
 23 22  1  0
 24 25  1  0
 25 26  1  0
 26 27  1  0
 27 28  1  0
 28 29  1  0
 26 30  2  0
 28 31  1  0
 32 33  2  0
 32 34  1  0
 33 35  1  0
 34 36  1  0
 34 37  2  0
 35 38  1  0
 35 39  2  0
 40 41  1  0
 40 42  1  0
 41 43  1  0
 43 44  1  0
 44 45  1  0
 45 46  1  0
 45 47  1  0
 45 48  1  0
 41 49  1  6
 42 50  1  0
 50 51  1  0
 51 52  2  0
 52 53  1  0
 53 54  1  0
 50 54  2  0
 55 56  1  0
 56 57  1  0
 57 58  1  0
 58 59  1  0
 59 60  1  0
 55 60  1  0
 58 51  1  0
M  END
