 
     RDKit          2D

 83 89  0  0  0  0  0  0  0  0999 V2000
   22.5038  -13.1468    0.0000 C   0  0  0  0  0  0  0  0  0  0  0  0
   22.0601  -11.8210    0.0000 N   0  0  0  0  0  0  0  0  0  0  0  0
   23.8997  -13.1525    0.0000 C   0  0  0  0  0  0  0  0  0  0  0  0
   21.8032  -14.3557    0.0000 C   0  0  0  0  0  0  0  0  0  0  0  0
   23.1989  -10.9859    0.0000 C   0  0  0  0  0  0  0  0  0  0  0  0
   20.8336  -11.1319    0.0000 C   0  0  0  0  0  0  0  0  0  0  0  0
   24.3377  -11.8210    0.0000 N   0  0  0  0  0  0  0  0  0  0  0  0
   24.5946  -14.3615    0.0000 C   0  0  0  0  0  0  0  0  0  0  0  0
   22.4981  -15.5646    0.0000 C   0  0  0  0  0  0  0  0  0  0  0  0
   21.0907  -15.5587    0.0000 C   0  0  0  0  0  0  0  0  0  0  0  0
   23.1989   -9.5843    0.0000 O   0  0  0  0  0  0  0  0  0  0  0  0
   19.6306  -11.8561    0.0000 C   0  0  0  0  0  0  0  0  0  0  0  0
   23.8938  -15.5704    0.0000 C   0  0  0  0  0  0  0  0  0  0  0  0
   19.6890  -15.5470    0.0000 O   0  0  0  0  0  0  0  0  0  0  0  0
   21.7739  -16.7735    0.0000 O   0  0  0  0  0  0  0  0  0  0  0  0
   24.4135   -8.8836    0.0000 C   0  0  0  0  0  0  0  0  0  0  0  0
   18.3983  -11.1729    0.0000 C   0  0  0  0  0  0  0  0  0  0  0  0
   19.6597  -13.2343    0.0000 C   0  0  0  0  0  0  0  0  0  0  0  0
   18.9882  -16.7501    0.0000 C   0  0  0  0  0  0  0  0  0  0  0  0
   24.4135   -7.4820    0.0000 C   0  0  0  0  0  0  0  0  0  0  0  0
   17.1953  -11.8971    0.0000 C   0  0  0  0  0  0  0  0  0  0  0  0
   18.4451  -13.9819    0.0000 C   0  0  0  0  0  0  0  0  0  0  0  0
   17.5923  -16.7501    0.0000 O   0  0  0  0  0  0  0  0  0  0  0  0
   19.6773  -17.9590    0.0000 C   0  0  0  0  0  0  0  0  0  0  0  0
   17.2302  -13.2987    0.0000 C   0  0  0  0  0  0  0  0  0  0  0  0
   16.8974  -17.9531    0.0000 C   0  0  0  0  0  0  0  0  0  0  0  0
   16.0215  -14.0170    0.0000 C   0  0  0  0  0  0  0  0  0  0  0  0
   15.5075  -17.9531    0.0000 O   0  0  0  0  0  0  0  0  0  0  0  0
   17.5923  -19.1680    0.0000 O   0  0  0  0  0  0  0  0  0  0  0  0
   14.7892  -13.3395    0.0000 C   0  0  0  0  0  0  0  0  0  0  0  0
   16.0447  -15.4186    0.0000 C   0  0  0  0  0  0  0  0  0  0  0  0
   14.8067  -19.1620    0.0000 C   0  0  0  0  0  0  0  0  0  0  0  0
   14.7658  -11.9321    0.0000 C   0  0  0  0  0  0  0  0  0  0  0  0
   13.5920  -14.0578    0.0000 C   0  0  0  0  0  0  0  0  0  0  0  0
   14.8417  -16.1428    0.0000 C   0  0  0  0  0  0  0  0  0  0  0  0
   13.4167  -19.1620    0.0000 C   0  0  0  0  0  0  0  0  0  0  0  0
   15.5075  -20.3769    0.0000 C   0  0  0  0  0  0  0  0  0  0  0  0
   13.6328  -11.1261    0.0000 N   0  0  0  0  0  0  0  0  0  0  0  0
   15.8987  -11.0853    0.0000 N   0  0  0  0  0  0  0  0  0  0  0  0
   13.6211  -15.4654    0.0000 C   0  0  0  0  0  0  0  0  0  0  0  0
   12.7159  -20.3769    0.0000 C   0  0  0  0  0  0  0  0  0  0  0  0
   14.8126  -21.5858    0.0000 C   0  0  0  0  0  0  0  0  0  0  0  0
   14.0416   -9.7829    0.0000 N   0  0  0  0  0  0  0  0  0  0  0  0
   15.4433   -9.7595    0.0000 N   0  0  0  0  0  0  0  0  0  0  0  0
   13.4167  -21.5858    0.0000 C   0  0  0  0  0  0  0  0  0  0  0  0
   29.5695  -18.6304    0.0000 C   0  0  0  0  0  0  0  0  0  0  0  0
   28.3142  -19.3278    0.0000 C   0  0  0  0  0  0  0  0  0  0  0  0
   30.7550  -19.3278    0.0000 C   0  0  0  0  0  0  0  0  0  0  0  0
   29.5698  -17.2357    0.0000 S   0  0  0  0  0  0  0  0  0  0  0  0
   28.3142  -20.6528    0.0000 C   0  0  0  0  0  0  0  0  0  0  0  0
   30.7550  -20.6528    0.0000 C   0  0  0  0  0  0  0  0  0  0  0  0
   29.5698  -15.8409    0.0000 O   0  0  0  0  0  0  0  0  0  0  0  0
   28.1750  -17.2357    0.0000 O   0  0  0  0  0  0  0  0  0  0  0  0
   30.9645  -17.2357    0.0000 O   0  0  0  0  0  0  0  0  0  0  0  0
   29.5695  -21.3502    0.0000 C   0  0  0  0  0  0  0  0  0  0  0  0
   19.3368  -16.0762    0.0000 C   0  0  0  0  0  0  0  0  0  0  0  0
   20.5198  -15.3803    0.0000 C   0  0  0  0  0  0  0  0  0  0  0  0
   18.1539  -15.3803    0.0000 C   0  0  0  0  0  0  0  0  0  0  0  0
   19.3368  -18.4421    0.0000 C   0  0  0  0  0  0  0  0  0  0  0  0
   20.5198  -13.9886    0.0000 C   0  0  0  0  0  0  0  0  0  0  0  0
   21.7028  -16.0762    0.0000 C   0  0  0  0  0  0  0  0  0  0  0  0
   18.1539  -13.9886    0.0000 C   0  0  0  0  0  0  0  0  0  0  0  0
   16.9709  -16.0066    0.0000 C   0  0  0  0  0  0  0  0  0  0  0  0
   20.5198  -19.1380    0.0000 C   0  0  0  0  0  0  0  0  0  0  0  0
   18.1539  -19.1380    0.0000 C   0  0  0  0  0  0  0  0  0  0  0  0
   19.3368  -13.2927    0.0000 N   0  0  0  0  0  0  0  0  0  0  0  0
   21.7028  -13.2927    0.0000 C   0  0  0  0  0  0  0  0  0  0  0  0
   22.8858  -15.3803    0.0000 O   0  0  0  0  0  0  0  0  0  0  0  0
   21.7028  -17.3983    0.0000 O   0  0  0  0  0  0  0  0  0  0  0  0
   16.9709  -13.2927    0.0000 C   0  0  0  0  0  0  0  0  0  0  0  0
   15.7879  -15.3803    0.0000 O   0  0  0  0  0  0  0  0  0  0  0  0
   16.9709  -17.3983    0.0000 O   0  0  0  0  0  0  0  0  0  0  0  0
   20.5198  -20.4601    0.0000 C   0  0  0  0  0  0  0  0  0  0  0  0
   21.7028  -18.4421    0.0000 Cl  0  0  0  0  0  0  0  0  0  0  0  0
   18.1539  -20.4601    0.0000 C   0  0  0  0  0  0  0  0  0  0  0  0
   22.8858  -13.9886    0.0000 O   0  0  0  0  0  0  0  0  0  0  0  0
   24.0687  -16.0762    0.0000 C   0  0  0  0  0  0  0  0  0  0  0  0
   14.6049  -16.0066    0.0000 C   0  0  0  0  0  0  0  0  0  0  0  0
   19.3368  -21.1560    0.0000 C   0  0  0  0  0  0  0  0  0  0  0  0
   24.0687  -13.2927    0.0000 C   0  0  0  0  0  0  0  0  0  0  0  0
   25.2517  -15.3803    0.0000 C   0  0  0  0  0  0  0  0  0  0  0  0
   25.2517  -13.9886    0.0000 C   0  0  0  0  0  0  0  0  0  0  0  0
   26.4347  -13.2927    0.0000 N   0  0  0  0  0  0  0  0  0  0  0  0
  1  2  1  0
  1  3  2  0
  1  4  1  0
  2  5  1  0
  2  6  1  0
  3  7  1  0
  3  8  1  0
  4  9  2  0
  4 10  1  0
  5 11  1  0
  6 12  1  0
  8 13  2  0
 10 14  1  0
 10 15  2  0
 11 16  1  0
 12 17  2  0
 12 18  1  0
 14 19  1  0
 16 20  1  0
 17 21  1  0
 18 22  2  0
 19 23  1  0
 19 24  1  0
 21 25  2  0
 23 26  1  0
 25 27  1  0
 26 28  1  0
 26 29  2  0
 27 30  1  0
 27 31  2  0
 28 32  1  0
 30 33  1  0
 30 34  2  0
 31 35  1  0
 32 36  1  0
 32 37  1  0
 33 38  1  0
 33 39  2  0
 34 40  1  0
 36 41  1  0
 37 42  1  0
 38 43  1  0
 39 44  1  0
 41 45  1  0
  5  7  2  0
  9 13  1  0
 22 25  1  0
 35 40  2  0
 42 45  1  0
 43 44  2  0
 46 47  2  0
 46 48  1  0
 46 49  1  0
 47 50  1  0
 48 51  2  0
 49 52  1  0
 49 53  2  0
 49 54  2  0
 50 55  2  0
 51 55  1  0
 56 57  1  0
 56 58  1  0
 56 59  1  0
 57 60  2  0
 57 61  1  0
 58 62  2  0
 58 63  1  0
 59 64  2  0
 59 65  1  0
 60 66  1  0
 60 67  1  0
 61 68  1  0
 61 69  2  0
 62 70  1  0
 63 71  1  0
 63 72  2  0
 64 73  1  0
 64 74  1  0
 65 75  2  0
 67 76  1  0
 68 77  1  0
 71 78  1  0
 73 79  2  0
 76 80  1  0
 77 81  1  0
 80 82  1  0
 82 83  1  0
 62 66  1  0
 75 79  1  0
M  END
