 
     RDKit          2D

 41 45  0  0  1  0  0  0  0  0999 V2000
   17.4421  -17.8029    0.0000 C   0  0  0  0  0  0  0  0  0  0  0  0
   17.4421  -19.1995    0.0000 C   0  0  0  0  0  0  0  0  0  0  0  0
   18.6991  -19.8978    0.0000 C   0  0  0  0  0  0  0  0  0  0  0  0
   18.6991  -17.1046    0.0000 C   0  0  0  0  0  0  0  0  0  0  0  0
   19.8862  -17.8029    0.0000 C   0  0  0  0  0  0  0  0  0  0  0  0
   19.8862  -19.1995    0.0000 C   0  0  0  0  0  0  0  0  0  0  0  0
   21.0733  -19.8978    0.0000 C   0  0  0  0  0  0  0  0  0  0  0  0
   22.2604  -19.1995    0.0000 C   0  0  0  0  0  0  0  0  0  0  0  0
   21.0733  -17.1046    0.0000 C   0  0  0  0  0  0  0  0  0  0  0  0
   22.2604  -17.8029    0.0000 C   0  0  0  0  0  0  0  0  0  0  0  0
   22.2604  -15.0096    0.0000 C   0  0  0  0  0  0  0  0  0  0  0  0
   21.0733  -15.7080    0.0000 C   0  0  0  0  0  0  0  0  0  0  0  0
   23.4474  -15.7080    0.0000 C   0  0  0  0  0  0  0  0  0  0  0  0
   23.4476  -17.1046    0.0000 C   0  0  0  0  0  0  0  0  0  0  0  0
   24.6347  -17.8029    0.0000 C   0  0  0  0  0  0  0  0  0  0  0  0
   25.8917  -17.1744    0.0000 C   0  0  0  0  0  0  0  0  0  0  0  0
   24.7045  -15.0795    0.0000 C   0  0  0  0  0  0  0  0  0  0  0  0
   25.8917  -15.7778    0.0000 C   0  0  0  0  0  0  0  0  0  0  0  0
   27.0788  -15.0795    0.0000 C   0  0  0  0  0  0  0  0  0  0  0  0
   27.0788  -13.7527    0.0000 C   0  0  0  0  0  0  0  0  0  0  0  0
   25.8917  -12.9845    0.0000 C   0  0  0  0  0  0  0  0  0  0  0  0
   24.7047  -13.6829    0.0000 C   0  0  0  0  0  0  0  0  0  0  0  0
   25.8917  -11.6578    0.0000 C   0  0  0  0  0  0  0  0  0  0  0  0
   24.7045  -10.9594    0.0000 O   0  0  0  0  0  0  0  0  0  0  0  0
   27.0788  -10.9594    0.0000 O   0  0  0  0  0  0  0  0  0  0  0  0
   27.0788  -12.2862    0.0000 C   0  0  0  0  0  0  0  0  0  0  0  0
   19.8862  -15.0096    0.0000 O   0  0  0  0  0  0  0  0  0  0  0  0
   16.2550  -19.8978    0.0000 O   0  0  0  0  0  0  0  0  0  0  0  0
   15.0678  -19.1995    0.0000 C   0  0  0  0  0  0  0  0  0  0  0  0
   13.8807  -19.8978    0.0000 C   0  0  0  0  0  0  0  0  0  0  0  0
   12.6936  -19.1995    0.0000 C   0  0  0  0  0  0  0  0  0  0  0  0
   11.5064  -19.8978    0.0000 C   0  0  0  0  0  0  0  0  0  0  0  0
   10.2495  -19.1995    0.0000 O   0  0  0  0  0  0  0  0  0  0  0  0
   15.0678  -17.8029    0.0000 O   0  0  0  0  0  0  0  0  0  0  0  0
   11.5064  -21.2945    0.0000 O   0  0  0  0  0  0  0  0  0  0  0  0
   25.8925  -14.6612    0.0000 C   0  0  0  0  0  0  0  0  0  0  0  0
   22.1213  -16.8263    0.0000 C   0  0  0  0  0  0  0  0  0  0  0  0
   19.8860  -16.4063    0.0000 C   0  0  0  0  0  0  0  0  0  0  0  0
   23.5174  -18.5012    0.0000 C   0  0  0  0  0  0  0  0  0  0  0  0
   18.0007  -21.4341    0.0000 C   0  0  0  0  0  0  0  0  0  0  0  0
   19.3275  -21.4341    0.0000 C   0  0  0  0  0  0  0  0  0  0  0  0
 18 19  1  0
 19 20  1  0
 20 21  1  0
 21 22  1  0
 17 22  1  6
  3  6  1  0
 21 23  1  0
  5  4  1  0
 23 24  1  0
  4  1  1  0
 23 25  2  0
  9 10  1  0
 21 26  1  6
 10 14  1  0
 12 27  2  0
 13 11  2  0
  2 28  1  1
 11 12  1  0
 28 29  1  0
  9 12  1  1
 29 30  1  0
 30 31  1  0
 31 32  1  0
 32 33  1  0
  1  2  1  0
 29 34  2  0
 13 14  1  0
 32 35  2  0
 14 15  1  0
 18 36  1  1
 15 16  1  0
 16 18  1  0
 10 37  1  1
 17 13  1  0
  5 38  1  1
  5  6  1  0
  6  7  1  1
  7  8  1  0
 14 39  1  6
  8 10  1  0
  3 40  1  0
  9  5  1  0
  3 41  1  0
  2  3  1  0
 17 18  1  0
M  END
