 
     RDKit          2D

 36 40  0  0  1  0  0  0  0  0999 V2000
    2.9299  -11.3320    0.0000 C   0  0  0  0  0  0  0  0  0  0  0  0
    2.9299  -12.6660    0.0000 C   0  0  0  0  0  0  0  0  0  0  0  0
    4.1235  -13.3682    0.0000 C   0  0  0  0  0  0  0  0  0  0  0  0
    5.3171  -12.6660    0.0000 C   0  0  0  0  0  0  0  0  0  0  0  0
    5.3171  -11.3320    0.0000 C   0  0  0  0  0  0  0  0  0  0  0  0
    4.1235  -10.7001    0.0000 C   0  0  0  0  0  0  0  0  0  0  0  0
    6.4405  -13.3682    0.0000 C   0  0  0  0  0  0  0  0  0  0  0  0
    7.6341  -12.6660    0.0000 C   0  0  0  0  0  0  0  0  0  0  0  0
    7.6341  -11.3320    0.0000 C   0  0  0  0  0  0  0  0  0  0  0  0
    6.4405  -10.7001    0.0000 C   0  0  0  0  0  0  0  0  0  0  0  0
    8.8277  -10.7001    0.0000 C   0  0  0  0  0  0  0  0  0  0  0  0
    8.8277   -9.2958    0.0000 C   0  0  0  0  0  0  0  0  0  0  0  0
    7.6341   -8.6639    0.0000 C   0  0  0  0  0  0  0  0  0  0  0  0
    6.4405   -9.2958    0.0000 C   0  0  0  0  0  0  0  0  0  0  0  0
   11.2150  -10.7001    0.0000 C   0  0  0  0  0  0  0  0  0  0  0  0
   11.2150   -9.2958    0.0000 C   0  0  0  0  0  0  0  0  0  0  0  0
   10.0214   -8.6639    0.0000 C   0  0  0  0  0  0  0  0  0  0  0  0
   11.0044   -7.6809    0.0000 O   0  0  0  0  0  0  0  0  0  0  0  0
    6.4405  -11.9639    0.0000 F   0  0  0  0  0  0  0  0  0  0  0  0
    1.8064  -13.3682    0.0000 O   0  0  0  0  0  0  0  0  0  0  0  0
    8.8277   -7.9618    0.0000 C   0  0  0  0  0  0  0  0  0  0  0  0
    5.3171   -9.9979    0.0000 C   0  0  0  0  0  0  0  0  0  0  0  0
    5.5277   -8.3830    0.0000 O   0  0  0  0  0  0  0  0  0  0  0  0
   10.0214   -6.8384    0.0000 C   0  0  0  0  0  0  0  0  0  0  0  0
    8.8277   -6.1362    0.0000 O   0  0  0  0  0  0  0  0  0  0  0  0
   12.3971   -8.5841    0.0000 C   0  0  0  0  0  0  0  0  0  0  0  0
   11.2188   -6.1537    0.0000 C   0  0  0  0  0  0  0  0  0  0  0  0
   12.4168   -6.8523    0.0000 O   0  0  0  0  0  0  0  0  0  0  0  0
   13.6087   -6.1709    0.0000 C   0  0  0  0  0  0  0  0  0  0  0  0
   14.7919   -6.8608    0.0000 C   0  0  0  0  0  0  0  0  0  0  0  0
   13.6149   -4.7604    0.0000 O   0  0  0  0  0  0  0  0  0  0  0  0
   14.7859   -8.2599    0.0000 C   0  0  0  0  0  0  0  0  0  0  0  0
   15.9954   -8.9651    0.0000 C   0  0  0  0  0  0  0  0  0  0  0  0
   17.2108   -8.2703    0.0000 N   0  0  0  0  0  0  0  0  0  0  0  0
   17.2168   -6.8713    0.0000 C   0  0  0  0  0  0  0  0  0  0  0  0
   16.0074   -6.1661    0.0000 C   0  0  0  0  0  0  0  0  0  0  0  0
  1  2  1  0
  2  3  1  0
  3  4  2  0
  4  5  1  0
  5  6  1  0
  1  6  2  0
  4  7  1  0
  7  8  1  0
  9  8  1  6
  9 10  1  0
  5 10  1  0
  9 11  1  0
 11 12  1  0
 12 13  1  0
 13 14  1  0
 10 14  1  0
 15 16  1  0
 16 17  1  0
 12 17  1  0
 17 18  1  6
 10 19  1  6
  2 20  2  0
 11 15  1  1
 12 21  1  1
  5 22  1  1
 14 23  1  1
 24 25  2  0
 17 24  1  0
 16 26  1  6
 24 27  1  0
 27 28  1  0
 28 29  1  0
 29 30  1  0
 29 31  2  0
 30 32  2  0
 32 33  1  0
 33 34  2  0
 34 35  1  0
 35 36  2  0
 30 36  1  0
M  END
