 
     RDKit          2D

 33 35  0  0  1  0  0  0  0  0999 V2000
   21.3933  -25.5423    0.0000 Na  0  0  0  0  0 15  0  0  0  0  0  0
   10.0800  -25.7600    0.0000 C   0  0  0  0  0  0  0  0  0  0  0  0
   10.0800  -27.0900    0.0000 C   0  0  0  0  0  0  0  0  0  0  0  0
   11.2700  -27.7900    0.0000 C   0  0  0  0  0  0  0  0  0  0  0  0
   12.4600  -27.0900    0.0000 C   0  0  0  0  0  0  0  0  0  0  0  0
   12.4600  -25.7600    0.0000 C   0  0  0  0  0  0  0  0  0  0  0  0
   11.2700  -25.1300    0.0000 C   0  0  0  0  0  0  0  0  0  0  0  0
   13.5800  -27.7900    0.0000 C   0  0  0  0  0  0  0  0  0  0  0  0
   14.7700  -27.0900    0.0000 C   0  0  0  0  0  0  0  0  0  0  0  0
   14.7700  -25.7600    0.0000 C   0  0  0  0  0  0  0  0  0  0  0  0
   13.5800  -25.1300    0.0000 C   0  0  0  0  0  0  0  0  0  0  0  0
   15.9600  -25.1300    0.0000 C   0  0  0  0  0  0  0  0  0  0  0  0
   15.9600  -23.7300    0.0000 C   0  0  0  0  0  0  0  0  0  0  0  0
   14.7700  -23.1000    0.0000 C   0  0  0  0  0  0  0  0  0  0  0  0
   13.5800  -23.7300    0.0000 C   0  0  0  0  0  0  0  0  0  0  0  0
   18.3400  -25.1300    0.0000 C   0  0  0  0  0  0  0  0  0  0  0  0
   18.3400  -23.7300    0.0000 C   0  0  0  0  0  0  0  0  0  0  0  0
   17.1500  -23.1000    0.0000 C   0  0  0  0  0  0  0  0  0  0  0  0
   18.1300  -22.1200    0.0000 O   0  0  0  0  0  0  0  0  0  0  0  0
   13.5800  -26.3900    0.0000 F   0  0  0  0  0  0  0  0  0  0  0  0
    8.9600  -27.7900    0.0000 O   0  0  0  0  0  0  0  0  0  0  0  0
   15.9600  -22.4000    0.0000 C   0  0  0  0  0  0  0  0  0  0  0  0
   12.4600  -24.4300    0.0000 C   0  0  0  0  0  0  0  0  0  0  0  0
   12.6700  -22.8200    0.0000 O   0  0  0  0  0  0  0  0  0  0  0  0
   19.6700  -23.1700    0.0000 C   0  0  0  0  0  0  0  0  0  0  0  0
   17.1500  -21.2800    0.0000 C   0  0  0  0  0  0  0  0  0  0  0  0
   15.9600  -20.5800    0.0000 O   0  0  0  0  0  0  0  0  0  0  0  0
   18.3653  -20.5849    0.0000 C   0  0  0  0  0  0  0  0  0  0  0  0
   19.5537  -21.2777    0.0000 O   0  0  0  0  0  0  0  0  0  0  0  0
   20.7501  -20.5935    0.0000 S   0  0  0  0  0  0  0  0  0  0  0  0
   21.3876  -21.8106    0.0000 O   0  0  0  0  0  0  0  0  0  0  0  0
   20.1631  -19.2955    0.0000 O   0  0  0  0  0  0  0  0  0  0  0  0
   21.9891  -19.9890    0.0000 O   0  0  0  0  0  0  0  0  0  0  0  0
  2  3  1  0
  3  4  1  0
  4  5  2  0
  5  6  1  0
  6  7  1  0
  2  7  2  0
  5  8  1  0
  8  9  1  0
 10  9  1  6
 10 11  1  0
  6 11  1  0
 10 12  1  0
 12 13  1  0
 13 14  1  0
 14 15  1  0
 11 15  1  0
 16 17  1  0
 17 18  1  0
 13 18  1  0
 18 19  1  6
 11 20  1  6
  3 21  2  0
 12 16  1  1
 13 22  1  1
  6 23  1  1
 15 24  1  1
 17 25  1  6
 26 27  2  0
 18 26  1  0
 26 28  1  0
 28 29  1  0
 29 30  1  0
 30 31  2  0
 30 32  2  0
 30 33  1  0
M  CHG  2   1   1  33  -1
M  END
