 
     RDKit          2D

 31 34  0  0  1  0  0  0  0  0999 V2000
   22.2600  -21.7000    0.0000 C   0  0  0  0  0  0  0  0  0  0  0  0
   22.2600  -23.1000    0.0000 C   0  0  0  0  0  0  0  0  0  0  0  0
   23.4500  -23.7300    0.0000 C   0  0  0  0  0  0  0  0  0  0  0  0
   24.5700  -23.1000    0.0000 C   0  0  0  0  0  0  0  0  0  0  0  0
   24.5700  -21.7000    0.0000 C   0  0  0  0  0  0  0  0  0  0  0  0
   23.4500  -21.0700    0.0000 C   0  0  0  0  0  0  0  0  0  0  0  0
   25.7600  -23.7300    0.0000 C   0  0  0  0  0  0  0  0  0  0  0  0
   26.9500  -23.1000    0.0000 C   0  0  0  0  0  0  0  0  0  0  0  0
   26.9500  -21.7000    0.0000 C   0  0  0  0  0  0  0  0  0  0  0  0
   25.7600  -21.0700    0.0000 C   0  0  0  0  0  0  0  0  0  0  0  0
   28.1400  -21.0700    0.0000 C   0  0  0  0  0  0  0  0  0  0  0  0
   28.1400  -19.6700    0.0000 C   0  0  0  0  0  0  0  0  0  0  0  0
   26.9500  -19.0400    0.0000 C   0  0  0  0  0  0  0  0  0  0  0  0
   25.7600  -19.6700    0.0000 C   0  0  0  0  0  0  0  0  0  0  0  0
   30.4500  -21.0700    0.0000 C   0  0  0  0  0  0  0  0  0  0  0  0
   30.4500  -19.6700    0.0000 C   0  0  0  0  0  0  0  0  0  0  0  0
   29.3300  -19.0400    0.0000 C   0  0  0  0  0  0  0  0  0  0  0  0
   24.5700  -20.3700    0.0000 C   0  0  0  0  0  0  0  0  0  0  0  0
   24.6400  -19.0400    0.0000 O   0  0  0  0  0  0  0  0  0  0  0  0
   28.1400  -18.3400    0.0000 C   0  0  0  0  0  0  0  0  0  0  0  0
   31.6400  -19.0400    0.0000 C   0  0  0  0  0  0  0  0  0  0  0  0
   29.3300  -17.2900    0.0000 C   0  0  0  0  0  0  0  0  0  0  0  0
   25.7600  -22.4000    0.0000 F   0  0  0  0  0  0  0  0  0  0  0  0
   30.4500  -18.1300    0.0000 O   0  0  0  0  0  0  0  0  0  0  0  0
   21.0700  -23.7300    0.0000 O   0  0  0  0  0  0  0  0  0  0  0  0
   30.4500  -16.6600    0.0000 O   0  0  0  0  0  0  0  0  0  0  0  0
   28.1400  -16.6600    0.0000 C   0  0  0  0  0  0  0  0  0  0  0  0
   26.9500  -17.2900    0.0000 O   0  0  0  0  0  0  0  0  0  0  0  0
   25.7600  -16.5900    0.0000 C   0  0  0  0  0  0  0  0  0  0  0  0
   24.5700  -17.2900    0.0000 C   0  0  0  0  0  0  0  0  0  0  0  0
   25.7600  -15.1900    0.0000 O   0  0  0  0  0  0  0  0  0  0  0  0
  1  2  1  0
  2  3  1  0
  3  4  2  0
  4  5  1  0
  5  6  1  0
  1  6  2  0
  4  7  1  0
  7  8  1  0
  9  8  1  6
  9 10  1  0
  5 10  1  0
  9 11  1  0
 11 12  1  0
 12 13  1  0
 13 14  1  0
 10 14  1  0
 11 15  1  1
 15 16  1  0
 16 17  1  0
 12 17  1  0
  5 18  1  1
 14 19  1  1
 12 20  1  1
 16 21  1  6
 17 22  1  0
 10 23  1  6
 17 24  1  6
  2 25  2  0
 22 26  2  0
 22 27  1  0
 27 28  1  0
 28 29  1  0
 29 30  1  0
 29 31  2  0
M  END
