 
     RDKit          2D

 33 35  0  0  1  0  0  0  0  0999 V2000
   25.3400  -17.9900    0.0000 C   0  0  0  0  0  0  0  0  0  0  0  0
   25.3400  -19.3200    0.0000 C   0  0  0  0  0  0  0  0  0  0  0  0
   26.5300  -17.3600    0.0000 C   0  0  0  0  0  0  0  0  0  0  0  0
   24.1500  -17.2900    0.0000 C   0  0  0  0  0  0  0  0  0  0  0  0
   24.1500  -20.0200    0.0000 C   0  0  0  0  0  0  0  0  0  0  0  0
   26.4600  -20.0200    0.0000 C   0  0  0  0  0  0  0  0  0  0  0  0
   27.6500  -18.0600    0.0000 C   0  0  0  0  0  0  0  0  0  0  0  0
   23.0300  -17.9900    0.0000 C   0  0  0  0  0  0  0  0  0  0  0  0
   23.0300  -19.3200    0.0000 C   0  0  0  0  0  0  0  0  0  0  0  0
   24.1500  -21.3500    0.0000 O   0  0  0  0  0  0  0  0  0  0  0  0
   27.6500  -19.3900    0.0000 C   0  0  0  0  0  0  0  0  0  0  0  0
   26.4600  -21.4200    0.0000 O   0  0  0  0  0  0  0  0  0  0  0  0
   28.8400  -17.3600    0.0000 O   0  0  0  0  0  0  0  0  0  0  0  0
   21.8400  -17.2900    0.0000 C   0  0  0  0  0  0  0  0  0  0  0  0
   21.8400  -20.0200    0.0000 C   0  0  0  0  0  0  0  0  0  0  0  0
   28.8400  -20.0900    0.0000 C   0  0  0  0  0  0  0  0  0  0  0  0
   20.6500  -17.9900    0.0000 C   0  0  0  0  0  0  0  0  0  0  0  0
   20.6500  -19.3200    0.0000 C   0  0  0  0  0  0  0  0  0  0  0  0
   21.8400  -21.3500    0.0000 O   0  0  0  0  0  0  0  0  0  0  0  0
   30.0300  -19.3900    0.0000 N   0  0  0  0  0  0  0  0  0  0  0  0
   28.8400  -21.4200    0.0000 O   0  0  0  0  0  0  0  0  0  0  0  0
   19.4600  -17.2900    0.0000 C   0  0  0  0  0  0  0  0  0  0  0  0
   19.4600  -20.0200    0.0000 C   0  0  0  0  0  0  0  0  0  0  0  0
   18.2700  -17.9900    0.0000 C   0  0  0  0  0  0  0  0  0  0  0  0
   18.2700  -19.3200    0.0000 C   0  0  0  0  0  0  0  0  0  0  0  0
   19.4600  -21.3500    0.0000 O   0  0  0  0  0  0  0  0  0  0  0  0
   21.8400  -15.6100    0.0000 C   0  0  0  0  0  0  0  0  0  0  0  0
   26.5300  -15.1200    0.0000 N   0  0  0  0  0  0  0  0  0  0  0  0
   27.7200  -14.4900    0.0000 C   0  0  0  0  0  0  0  0  0  0  0  0
   25.3400  -14.4200    0.0000 C   0  0  0  0  0  0  0  0  0  0  0  0
   24.1500  -15.6100    0.0000 O   0  0  0  0  0  0  0  0  0  0  0  0
   25.3400  -20.7200    0.0000 O   0  0  0  0  0  0  0  0  0  0  0  0
   33.2500  -18.2000    0.0000 Cl  0  0  0  0  0  0  0  0  0  0  0  0
  5  9  2  0
  5 10  1  0
  6 11  1  0
  6 12  2  0
  7 13  1  0
  8 14  1  0
  9 15  1  0
 11 16  1  0
 14 17  1  0
 15 18  1  0
 15 19  2  0
 16 20  1  0
 16 21  2  0
 17 22  2  0
 18 23  2  0
 22 24  1  0
 23 25  1  0
 23 26  1  0
  7 11  2  0
  8  9  1  1
 17 18  1  0
 24 25  2  0
 14 27  1  6
  3 28  1  6
  1  2  1  0
 28 29  1  0
  1  3  1  1
 28 30  1  0
  1  4  1  0
  2  5  1  0
  2  6  1  0
  4 31  1  6
  3  7  1  0
  2 32  1  6
  4  8  1  0
M  END
