 
     RDKit          2D

 48 51  0  0  0  0  0  0  0  0999 V2000
   22.4791  -15.9596    0.0000 C   0  0  0  0  0  0  0  0  0  0  0  0
   22.4731  -17.3165    0.0000 C   0  0  0  0  0  0  0  0  0  0  0  0
   23.6605  -15.2870    0.0000 C   0  0  0  0  0  0  0  0  0  0  0  0
   21.3034  -15.2811    0.0000 S   0  0  0  0  0  0  0  0  0  0  0  0
   23.6430  -18.0010    0.0000 C   0  0  0  0  0  0  0  0  0  0  0  0
   21.3034  -17.9950    0.0000 N   0  0  0  0  0  0  0  0  0  0  0  0
   24.8304  -15.9713    0.0000 C   0  0  0  0  0  0  0  0  0  0  0  0
   20.1278  -15.9596    0.0000 N   0  0  0  0  0  0  0  0  0  0  0  0
   19.9933  -14.4564    0.0000 O   0  0  0  0  0  0  0  0  0  0  0  0
   22.5376  -14.4564    0.0000 O   0  0  0  0  0  0  0  0  0  0  0  0
   24.8244  -17.3282    0.0000 C   0  0  0  0  0  0  0  0  0  0  0  0
   20.1278  -17.3165    0.0000 C   0  0  0  0  0  0  0  0  0  0  0  0
   26.0118  -15.2987    0.0000 S   0  0  0  0  0  0  0  0  0  0  0  0
   26.0003  -18.0127    0.0000 Cl  0  0  0  0  0  0  0  0  0  0  0  0
   27.2636  -14.4623    0.0000 N   0  0  0  0  0  0  0  0  0  0  0  0
   27.1349  -16.3164    0.0000 O   0  0  0  0  0  0  0  0  0  0  0  0
   24.9357  -14.2516    0.0000 O   0  0  0  0  0  0  0  0  0  0  0  0
   22.4920  -11.1792    0.0000 N   0  0  0  0  0  0  0  0  0  0  0  0
   22.9128  -12.4884    0.0000 C   0  0  0  0  0  0  0  0  0  0  0  0
   23.6142  -10.3376    0.0000 C   0  0  0  0  0  0  0  0  0  0  0  0
   21.2763  -10.4778    0.0000 C   0  0  0  0  0  0  0  0  0  0  0  0
   24.3155  -12.4884    0.0000 N   0  0  0  0  0  0  0  0  0  0  0  0
   22.0712  -13.6573    0.0000 C   0  0  0  0  0  0  0  0  0  0  0  0
   24.7363  -11.1792    0.0000 C   0  0  0  0  0  0  0  0  0  0  0  0
   23.6142   -8.9349    0.0000 C   0  0  0  0  0  0  0  0  0  0  0  0
   20.0607  -11.2260    0.0000 C   0  0  0  0  0  0  0  0  0  0  0  0
   22.6790  -14.9197    0.0000 C   0  0  0  0  0  0  0  0  0  0  0  0
   26.0922  -10.7584    0.0000 Cl  0  0  0  0  0  0  0  0  0  0  0  0
   24.8298   -8.2335    0.0000 O   0  0  0  0  0  0  0  0  0  0  0  0
   20.0607  -12.6286    0.0000 C   0  0  0  0  0  0  0  0  0  0  0  0
   18.8451  -10.5246    0.0000 C   0  0  0  0  0  0  0  0  0  0  0  0
   21.8374  -16.0418    0.0000 C   0  0  0  0  0  0  0  0  0  0  0  0
   18.8917  -13.3300    0.0000 C   0  0  0  0  0  0  0  0  0  0  0  0
   17.6761  -11.3194    0.0000 C   0  0  0  0  0  0  0  0  0  0  0  0
   22.3984  -17.3509    0.0000 C   0  0  0  0  0  0  0  0  0  0  0  0
   17.6761  -12.6754    0.0000 C   0  0  0  0  0  0  0  0  0  0  0  0
   16.4605  -13.3768    0.0000 C   0  0  0  0  0  0  0  0  0  0  0  0
   15.2448  -12.6754    0.0000 C   0  0  0  0  0  0  0  0  0  0  0  0
   16.4605  -14.7794    0.0000 C   0  0  0  0  0  0  0  0  0  0  0  0
   15.2448  -11.2727    0.0000 C   0  0  0  0  0  0  0  0  0  0  0  0
   14.0292  -13.4235    0.0000 C   0  0  0  0  0  0  0  0  0  0  0  0
   15.2916  -15.4808    0.0000 C   0  0  0  0  0  0  0  0  0  0  0  0
   14.1226  -10.4778    0.0000 N   0  0  0  0  0  0  0  0  0  0  0  0
   16.3669  -10.4311    0.0000 N   0  0  0  0  0  0  0  0  0  0  0  0
   14.0292  -14.8729    0.0000 C   0  0  0  0  0  0  0  0  0  0  0  0
   14.5435   -9.1219    0.0000 N   0  0  0  0  0  0  0  0  0  0  0  0
   15.8994   -9.1219    0.0000 N   0  0  0  0  0  0  0  0  0  0  0  0
   11.0368  -10.5714    0.0000 K   0  0  0  0  0 15  0  0  0  0  0  0
  1  2  1  0
  1  3  2  0
  1  4  1  0
  2  5  2  0
  2  6  1  0
  3  7  1  0
  4  8  1  0
  4  9  2  0
  4 10  2  0
  5 11  1  0
  6 12  1  0
  7 13  1  0
 11 14  1  0
 13 15  1  0
 13 16  2  0
 13 17  2  0
  7 11  2  0
  8 12  1  0
 18 19  1  0
 18 20  1  0
 18 21  1  0
 19 22  2  0
 19 23  1  0
 20 24  2  0
 20 25  1  0
 21 26  1  0
 23 27  1  0
 24 28  1  0
 25 29  1  0
 26 30  2  0
 26 31  1  0
 27 32  1  0
 30 33  1  0
 31 34  2  0
 32 35  1  0
 33 36  2  0
 36 37  1  0
 37 38  1  0
 37 39  2  0
 38 40  1  0
 38 41  2  0
 39 42  1  0
 40 43  1  0
 40 44  2  0
 41 45  1  0
 43 46  1  0
 44 47  1  0
 22 24  1  0
 34 36  1  0
 42 45  2  0
 46 47  2  0
M  CHG  2  43  -1  48   1
M  END
