 
     RDKit          2D

 38 42  0  0  1  0  0  0  0  0999 V2000
   18.4100  -23.8700    0.0000 C   0  0  0  0  0  0  0  0  0  0  0  0
   18.4100  -25.2000    0.0000 C   0  0  0  0  0  0  0  0  0  0  0  0
   19.6700  -25.9000    0.0000 C   0  0  0  0  0  0  0  0  0  0  0  0
   20.8600  -25.2000    0.0000 C   0  0  0  0  0  0  0  0  0  0  0  0
   20.8600  -23.8700    0.0000 C   0  0  0  0  0  0  0  0  0  0  0  0
   19.6700  -23.2400    0.0000 C   0  0  0  0  0  0  0  0  0  0  0  0
   21.9800  -25.9000    0.0000 C   0  0  0  0  0  0  0  0  0  0  0  0
   23.1700  -25.2000    0.0000 C   0  0  0  0  0  0  0  0  0  0  0  0
   23.1700  -23.8700    0.0000 C   0  0  0  0  0  0  0  0  0  0  0  0
   21.9800  -23.2400    0.0000 C   0  0  0  0  0  0  0  0  0  0  0  0
   24.3600  -23.2400    0.0000 C   0  0  0  0  0  0  0  0  0  0  0  0
   24.3600  -21.8400    0.0000 C   0  0  0  0  0  0  0  0  0  0  0  0
   23.1700  -21.2100    0.0000 C   0  0  0  0  0  0  0  0  0  0  0  0
   21.9800  -21.8400    0.0000 C   0  0  0  0  0  0  0  0  0  0  0  0
   26.7400  -23.2400    0.0000 C   0  0  0  0  0  0  0  0  0  0  0  0
   26.7400  -21.8400    0.0000 C   0  0  0  0  0  0  0  0  0  0  0  0
   25.5500  -21.2100    0.0000 C   0  0  0  0  0  0  0  0  0  0  0  0
   26.5300  -20.2300    0.0000 O   0  0  0  0  0  0  0  0  0  0  0  0
   21.9800  -24.5000    0.0000 F   0  0  0  0  0  0  0  0  0  0  0  0
   17.2900  -25.9000    0.0000 O   0  0  0  0  0  0  0  0  0  0  0  0
   24.3600  -20.5100    0.0000 C   0  0  0  0  0  0  0  0  0  0  0  0
   20.8600  -22.5400    0.0000 C   0  0  0  0  0  0  0  0  0  0  0  0
   21.0700  -20.9300    0.0000 O   0  0  0  0  0  0  0  0  0  0  0  0
   28.1400  -21.2800    0.0000 C   0  0  0  0  0  0  0  0  0  0  0  0
   25.5500  -19.3900    0.0000 C   0  0  0  0  0  0  0  0  0  0  0  0
   24.3600  -18.6900    0.0000 O   0  0  0  0  0  0  0  0  0  0  0  0
   26.7400  -18.6900    0.0000 C   0  0  0  0  0  0  0  0  0  0  0  0
   27.9300  -19.3900    0.0000 O   0  0  0  0  0  0  0  0  0  0  0  0
   29.1900  -18.6900    0.0000 C   0  0  0  0  0  0  0  0  0  0  0  0
   30.3100  -19.3900    0.0000 C   0  0  0  0  0  0  0  0  0  0  0  0
   29.1900  -17.2900    0.0000 O   0  0  0  0  0  0  0  0  0  0  0  0
   31.5700  -18.6900    0.0000 C   0  0  0  0  0  0  0  0  0  0  0  0
   32.7600  -19.3900    0.0000 C   0  0  0  0  0  0  0  0  0  0  0  0
   32.7486  -20.7900    0.0000 C   0  0  0  0  0  0  0  0  0  0  0  0
   33.9553  -21.4998    0.0000 C   0  0  0  0  0  0  0  0  0  0  0  0
   35.1734  -20.8097    0.0000 C   0  0  0  0  0  0  0  0  0  0  0  0
   35.1148  -19.4097    0.0000 C   0  0  0  0  0  0  0  0  0  0  0  0
   33.9781  -18.6999    0.0000 C   0  0  0  0  0  0  0  0  0  0  0  0
  1  2  1  0
  2  3  1  0
  3  4  2  0
  4  5  1  0
  5  6  1  0
  1  6  2  0
  4  7  1  0
  7  8  1  0
  9  8  1  6
  9 10  1  0
  5 10  1  0
  9 11  1  0
 11 12  1  0
 12 13  1  0
 13 14  1  0
 10 14  1  0
 15 16  1  0
 16 17  1  0
 12 17  1  0
 17 18  1  6
 10 19  1  6
  2 20  2  0
 11 15  1  1
 12 21  1  1
  5 22  1  1
 14 23  1  1
 16 24  1  6
 25 26  2  0
 17 25  1  0
 25 27  1  0
 27 28  1  0
 28 29  1  0
 29 30  1  0
 29 31  2  0
 30 32  1  0
 32 33  1  0
 33 34  2  0
 34 35  1  0
 35 36  2  0
 36 37  1  0
 37 38  2  0
 33 38  1  0
M  END
