 
 
 
 29 31  0  0  0  0  0  0  0  0999 V2000
   13.1858  -13.0551    0.0000 C   0  0  0  0  0  0  0  0  0  0  0  0
   13.1858  -14.4518    0.0000 N   0  0  0  0  0  0  0  0  0  0  0  0
   14.5127  -15.1501    0.0000 C   0  0  0  0  0  0  0  0  0  0  0  0
   15.6999  -14.4518    0.0000 C   0  0  0  0  0  0  0  0  0  0  0  0
   15.6999  -13.0551    0.0000 C   0  0  0  0  0  0  0  0  0  0  0  0
   14.5127  -12.3568    0.0000 N   0  0  0  0  0  0  0  0  0  0  0  0
   16.8871  -15.1501    0.0000 C   0  0  0  0  0  0  0  0  0  0  0  0
   18.0743  -14.4518    0.0000 C   0  0  0  0  0  0  0  0  0  0  0  0
   18.0743  -13.0551    0.0000 C   0  0  0  0  0  0  0  0  0  0  0  0
   16.8871  -12.3568    0.0000 C   0  0  0  0  0  0  0  0  0  0  0  0
   14.5127  -16.4770    0.0000 N   0  0  0  0  0  0  0  0  0  0  0  0
   15.6999  -17.1754    0.0000 C   0  0  0  0  0  0  0  0  0  0  0  0
   15.6999  -18.5720    0.0000 C   0  0  0  0  0  0  0  0  0  0  0  0
   16.8871  -19.3402    0.0000 C   0  0  0  0  0  0  0  0  0  0  0  0
   18.0743  -18.5720    0.0000 C   0  0  0  0  0  0  0  0  0  0  0  0
   18.0743  -17.1754    0.0000 C   0  0  0  0  0  0  0  0  0  0  0  0
   16.8871  -16.4770    0.0000 C   0  0  0  0  0  0  0  0  0  0  0  0
   19.2615  -12.3568    0.0000 O   0  0  0  0  0  0  0  0  0  0  0  0
   20.5185  -13.0551    0.0000 C   0  0  0  0  0  0  0  0  0  0  0  0
   21.7057  -12.3568    0.0000 C   0  0  0  0  0  0  0  0  0  0  0  0
   22.8929  -13.0551    0.0000 O   0  0  0  0  0  0  0  0  0  0  0  0
   24.1499  -12.3568    0.0000 C   0  0  0  0  0  0  0  0  0  0  0  0
   19.2615  -15.1501    0.0000 O   0  0  0  0  0  0  0  0  0  0  0  0
   20.5185  -14.4518    0.0000 C   0  0  0  0  0  0  0  0  0  0  0  0
   21.7057  -15.1501    0.0000 C   0  0  0  0  0  0  0  0  0  0  0  0
   22.8929  -14.4518    0.0000 O   0  0  0  0  0  0  0  0  0  0  0  0
   24.1499  -15.1501    0.0000 C   0  0  0  0  0  0  0  0  0  0  0  0
   16.8868  -20.7199    0.0000 C   0  0  0  0  0  0  0  0  0  0  0  0
   16.8868  -22.1199    0.0000 C   0  0  0  0  0  0  0  0  0  0  0  0
  1  2  1  0     0  0
  2  3  2  0     0  0
  3  4  1  0     0  0
  4  5  1  0     0  0
  5  6  1  0     0  0
  1  6  2  0     0  0
  4  7  2  0     0  0
  7  8  1  0     0  0
  8  9  2  0     0  0
  9 10  1  0     0  0
  5 10  2  0     0  0
  3 11  1  0     0  0
 11 12  1  0     0  0
 12 13  2  0     0  0
 13 14  1  0     0  0
 14 15  2  0     0  0
 15 16  1  0     0  0
 16 17  2  0     0  0
 12 17  1  0     0  0
  9 18  1  0     0  0
 18 19  1  0     0  0
 19 20  1  0     0  0
 20 21  1  0     0  0
 21 22  1  0     0  0
  8 23  1  0     0  0
 23 24  1  0     0  0
 24 25  1  0     0  0
 25 26  1  0     0  0
 26 27  1  0     0  0
 14 28  1  0     0  0
 28 29  3  0     0  0
M  END
