144243-45-8.mol
     RDKit          2D

421467  0  0  0  0  0  0  0  0999 V2000
    9.6520   -0.9881    0.0000 C   0  0  0  0  0  0  0  0  0  0  0  0
   15.7396   -9.4755    0.0000 C   0  0  0  0  0  0  0  0  0  0  0  0
    0.1941   -8.3109    0.0000 C   0  0  0  0  0  0  0  0  0  0  0  0
    0.4235    0.3529    0.0000 C   0  0  0  0  0  0  0  0  0  0  0  0
    5.5759   10.0578    0.0000 C   0  0  0  0  0  0  0  0  0  0  0  0
   15.1220   -8.8579    0.0000 N   0  0  0  0  0  0  0  0  0  0  0  0
    0.7940    1.1117    0.0000 N   0  0  0  0  0  0  0  0  0  0  0  0
   10.4284   -1.2352    0.0000 N   0  0  0  0  0  0  0  0  0  0  0  0
    6.2464    9.5461    0.0000 N   0  0  0  0  0  0  0  0  0  0  0  0
    0.2647   -7.4992    0.0000 N   0  0  0  0  0  0  0  0  0  0  0  0
  -12.2282   -5.2407    0.0000 N   0  0  0  0  0  0  0  0  0  0  0  0
  -14.7691   -2.2410    0.0000 N   0  0  0  0  0  0  0  0  0  0  0  0
  -17.2747    5.0466    0.0000 N   0  0  0  0  0  0  0  0  0  0  0  0
  -11.9106    9.3167    0.0000 N   0  0  0  0  0  0  0  0  0  0  0  0
   -4.2349    8.0110    0.0000 N   0  0  0  0  0  0  0  0  0  0  0  0
   -0.9352    5.8935    0.0000 N   0  0  0  0  0  0  0  0  0  0  0  0
    3.7761   -9.2814    0.0000 N   0  0  0  0  0  0  0  0  0  0  0  0
   11.5400   -9.8637    0.0000 N   0  0  0  0  0  0  0  0  0  0  0  0
    7.6051   -9.9872    0.0000 N   0  0  0  0  0  0  0  0  0  0  0  0
   -6.2464   -6.8464    0.0000 N   0  0  0  0  0  0  0  0  0  0  0  0
   -0.6176   -8.4874    0.0000 C   0  0  0  0  0  0  0  0  0  0  0  0
    1.0058   -0.2823    0.0000 C   0  0  0  0  0  0  0  0  0  0  0  0
   15.3338  -10.2166    0.0000 C   0  0  0  0  0  0  0  0  0  0  0  0
    9.6520   -0.1765    0.0000 C   0  0  0  0  0  0  0  0  0  0  0  0
    5.8582   10.8519    0.0000 C   0  0  0  0  0  0  0  0  0  0  0  0
   -2.0998   -2.3468    0.0000 N   0  0  0  0  0  0  0  0  0  0  0  0
   -7.9404    9.1932    0.0000 N   0  0  0  0  0  0  0  0  0  0  0  0
    4.8877    2.2939    0.0000 N   0  0  0  0  0  0  0  0  0  0  0  0
   17.2042   -2.4527    0.0000 N   0  0  0  0  0  0  0  0  0  0  0  0
  -16.4807    1.2175    0.0000 N   0  0  0  0  0  0  0  0  0  0  0  0
   -8.1521   -1.3587    0.0000 N   0  0  0  0  0  0  0  0  0  0  0  0
    0.7411   -8.9285    0.0000 N   0  0  0  0  0  0  0  0  0  0  0  0
    8.9815   -1.3940    0.0000 N   0  0  0  0  0  0  0  0  0  0  0  0
   16.5689   -9.4579    0.0000 N   0  0  0  0  0  0  0  0  0  0  0  0
   -0.4235    0.1588    0.0000 N   0  0  0  0  0  0  0  0  0  0  0  0
    4.7642    9.8990    0.0000 N   0  0  0  0  0  0  0  0  0  0  0  0
   -6.2817   -7.6933    0.0000 C   0  0  0  0  0  0  0  0  0  0  0  0
    7.9933  -10.7283    0.0000 C   0  0  0  0  0  0  0  0  0  0  0  0
  -17.9629    4.5525    0.0000 C   0  0  0  0  0  0  0  0  0  0  0  0
   12.1223  -10.4813    0.0000 C   0  0  0  0  0  0  0  0  0  0  0  0
  -12.4399    9.9872    0.0000 C   0  0  0  0  0  0  0  0  0  0  0  0
  -12.3517   -6.0700    0.0000 C   0  0  0  0  0  0  0  0  0  0  0  0
    4.0055  -10.0931    0.0000 C   0  0  0  0  0  0  0  0  0  0  0  0
   -4.3407    8.8403    0.0000 C   0  0  0  0  0  0  0  0  0  0  0  0
  -15.1220   -2.9644    0.0000 C   0  0  0  0  0  0  0  0  0  0  0  0
   -0.8117    6.7229    0.0000 C   0  0  0  0  0  0  0  0  0  0  0  0
    4.4819    1.5704    0.0000 C   0  0  0  0  0  0  0  0  0  0  0  0
   -8.2580    9.9696    0.0000 C   0  0  0  0  0  0  0  0  0  0  0  0
   -1.8704   -1.5175    0.0000 C   0  0  0  0  0  0  0  0  0  0  0  0
   17.3453   -1.6587    0.0000 C   0  0  0  0  0  0  0  0  0  0  0  0
  -17.0101    0.5646    0.0000 C   0  0  0  0  0  0  0  0  0  0  0  0
   -7.8698   -0.5646    0.0000 C   0  0  0  0  0  0  0  0  0  0  0  0
    7.5345  -11.4518    0.0000 N   0  0  0  0  0  0  0  0  0  0  0  0
   -7.0405   -8.0815    0.0000 N   0  0  0  0  0  0  0  0  0  0  0  0
  -13.1634   -6.3700    0.0000 N   0  0  0  0  0  0  0  0  0  0  0  0
    3.3879  -10.6930    0.0000 N   0  0  0  0  0  0  0  0  0  0  0  0
   -3.6526    9.3520    0.0000 N   0  0  0  0  0  0  0  0  0  0  0  0
  -18.7393    4.9230    0.0000 N   0  0  0  0  0  0  0  0  0  0  0  0
   11.8753  -11.3283    0.0000 N   0  0  0  0  0  0  0  0  0  0  0  0
   -0.0176    7.0228    0.0000 N   0  0  0  0  0  0  0  0  0  0  0  0
  -15.9690   -3.0350    0.0000 N   0  0  0  0  0  0  0  0  0  0  0  0
  -12.1223   10.7813    0.0000 N   0  0  0  0  0  0  0  0  0  0  0  0
   18.1394   -1.3940    0.0000 N   0  0  0  0  0  0  0  0  0  0  0  0
  -17.8570    0.7058    0.0000 N   0  0  0  0  0  0  0  0  0  0  0  0
   -7.7286   10.6401    0.0000 N   0  0  0  0  0  0  0  0  0  0  0  0
   -8.4168    0.1059    0.0000 N   0  0  0  0  0  0  0  0  0  0  0  0
   -2.5233   -0.8999    0.0000 N   0  0  0  0  0  0  0  0  0  0  0  0
    4.8877    0.8117    0.0000 N   0  0  0  0  0  0  0  0  0  0  0  0
   10.7107   -1.9586    0.0000 C   0  0  0  0  0  0  0  0  0  0  0  0
    0.9352   -7.1111    0.0000 C   0  0  0  0  0  0  0  0  0  0  0  0
   15.2455   -8.0110    0.0000 C   0  0  0  0  0  0  0  0  0  0  0  0
    0.4941    1.8351    0.0000 C   0  0  0  0  0  0  0  0  0  0  0  0
    8.0463   -9.3344    0.0000 C   0  0  0  0  0  0  0  0  0  0  0  0
  -11.4694   -4.9407    0.0000 C   0  0  0  0  0  0  0  0  0  0  0  0
   -4.8701    7.5169    0.0000 C   0  0  0  0  0  0  0  0  0  0  0  0
   11.8223   -9.1050    0.0000 C   0  0  0  0  0  0  0  0  0  0  0  0
  -12.1929    8.5756    0.0000 C   0  0  0  0  0  0  0  0  0  0  0  0
   -5.5230   -6.4758    0.0000 C   0  0  0  0  0  0  0  0  0  0  0  0
   -1.6939    5.5936    0.0000 C   0  0  0  0  0  0  0  0  0  0  0  0
    4.3937   -8.6815    0.0000 C   0  0  0  0  0  0  0  0  0  0  0  0
  -13.9751   -2.1527    0.0000 C   0  0  0  0  0  0  0  0  0  0  0  0
  -16.5336    4.7289    0.0000 C   0  0  0  0  0  0  0  0  0  0  0  0
    6.2464    8.7521    0.0000 C   0  0  0  0  0  0  0  0  0  0  0  0
   10.4284    0.0882    0.0000 N   0  0  0  0  0  0  0  0  0  0  0  0
   -1.0587   -7.7992    0.0000 N   0  0  0  0  0  0  0  0  0  0  0  0
    1.7822    0.0529    0.0000 N   0  0  0  0  0  0  0  0  0  0  0  0
    6.7052   10.8342    0.0000 N   0  0  0  0  0  0  0  0  0  0  0  0
   14.4868  -10.0931    0.0000 N   0  0  0  0  0  0  0  0  0  0  0  0
   -1.5528   -2.9468    0.0000 C   0  0  0  0  0  0  0  0  0  0  0  0
   16.4454   -2.6997    0.0000 C   0  0  0  0  0  0  0  0  0  0  0  0
   -8.4168    8.5403    0.0000 C   0  0  0  0  0  0  0  0  0  0  0  0
  -15.6867    1.0940    0.0000 C   0  0  0  0  0  0  0  0  0  0  0  0
   -7.6581   -1.9763    0.0000 C   0  0  0  0  0  0  0  0  0  0  0  0
    4.5172    3.0173    0.0000 C   0  0  0  0  0  0  0  0  0  0  0  0
   16.5866  -10.9401    0.0000 N   0  0  0  0  0  0  0  0  0  0  0  0
   -0.0529   -1.2881    0.0000 N   0  0  0  0  0  0  0  0  0  0  0  0
   -0.3529   -9.8990    0.0000 N   0  0  0  0  0  0  0  0  0  0  0  0
    8.2580   -0.1765    0.0000 N   0  0  0  0  0  0  0  0  0  0  0  0
    4.5172   11.3459    0.0000 N   0  0  0  0  0  0  0  0  0  0  0  0
    8.9815    0.2117    0.0000 C   0  0  0  0  0  0  0  0  0  0  0  0
   -0.9176   -9.2814    0.0000 C   0  0  0  0  0  0  0  0  0  0  0  0
    5.3465   11.4871    0.0000 C   0  0  0  0  0  0  0  0  0  0  0  0
    0.7764   -1.1117    0.0000 C   0  0  0  0  0  0  0  0  0  0  0  0
   15.7749  -10.9401    0.0000 C   0  0  0  0  0  0  0  0  0  0  0  0
   -6.9170   -6.4229    0.0000 C   0  0  0  0  0  0  0  0  0  0  0  0
  -15.2279   -1.5881    0.0000 C   0  0  0  0  0  0  0  0  0  0  0  0
  -11.1342    9.4579    0.0000 C   0  0  0  0  0  0  0  0  0  0  0  0
   -3.4938    7.7110    0.0000 C   0  0  0  0  0  0  0  0  0  0  0  0
  -12.8458   -4.7642    0.0000 C   0  0  0  0  0  0  0  0  0  0  0  0
    6.8111   -9.9696    0.0000 C   0  0  0  0  0  0  0  0  0  0  0  0
  -17.3630    5.8406    0.0000 C   0  0  0  0  0  0  0  0  0  0  0  0
    3.0173   -9.0520    0.0000 C   0  0  0  0  0  0  0  0  0  0  0  0
   -0.3176    5.4171    0.0000 C   0  0  0  0  0  0  0  0  0  0  0  0
   10.7636  -10.0402    0.0000 C   0  0  0  0  0  0  0  0  0  0  0  0
    0.4764   -9.7226    0.0000 C   0  0  0  0  0  0  0  0  0  0  0  0
   17.0101  -10.1637    0.0000 C   0  0  0  0  0  0  0  0  0  0  0  0
    8.2580   -0.9881    0.0000 C   0  0  0  0  0  0  0  0  0  0  0  0
   -0.6529   -0.6705    0.0000 C   0  0  0  0  0  0  0  0  0  0  0  0
    4.2349   10.5342    0.0000 C   0  0  0  0  0  0  0  0  0  0  0  0
   -2.8056    8.2227    0.0000 C   0  0  0  0  0  0  0  0  0  0  0  0
  -18.1394    6.1935    0.0000 C   0  0  0  0  0  0  0  0  0  0  0  0
    6.3523  -10.6930    0.0000 C   0  0  0  0  0  0  0  0  0  0  0  0
  -13.6575   -5.0466    0.0000 C   0  0  0  0  0  0  0  0  0  0  0  0
  -16.0749   -1.6587    0.0000 C   0  0  0  0  0  0  0  0  0  0  0  0
   10.4813  -10.8519    0.0000 C   0  0  0  0  0  0  0  0  0  0  0  0
    0.4764    5.7171    0.0000 C   0  0  0  0  0  0  0  0  0  0  0  0
    2.3998   -9.6167    0.0000 C   0  0  0  0  0  0  0  0  0  0  0  0
  -10.8166   10.2519    0.0000 C   0  0  0  0  0  0  0  0  0  0  0  0
   -7.6757   -6.8111    0.0000 C   0  0  0  0  0  0  0  0  0  0  0  0
    6.8993   10.0402    0.0000 C   0  0  0  0  0  0  0  0  0  0  0  0
   -0.4764   -7.1993    0.0000 C   0  0  0  0  0  0  0  0  0  0  0  0
   14.3633   -9.2285    0.0000 C   0  0  0  0  0  0  0  0  0  0  0  0
    1.6234    0.8999    0.0000 C   0  0  0  0  0  0  0  0  0  0  0  0
   10.9048   -0.5646    0.0000 C   0  0  0  0  0  0  0  0  0  0  0  0
    2.5762  -10.4460    0.0000 C   0  0  0  0  0  0  0  0  0  0  0  0
   11.0283  -11.4694    0.0000 C   0  0  0  0  0  0  0  0  0  0  0  0
  -13.7986   -5.8406    0.0000 C   0  0  0  0  0  0  0  0  0  0  0  0
  -11.2930   10.8871    0.0000 C   0  0  0  0  0  0  0  0  0  0  0  0
    0.6176    6.4935    0.0000 C   0  0  0  0  0  0  0  0  0  0  0  0
  -18.7922    5.7524    0.0000 C   0  0  0  0  0  0  0  0  0  0  0  0
    6.6876  -11.3989    0.0000 C   0  0  0  0  0  0  0  0  0  0  0  0
   -2.8762    8.9991    0.0000 C   0  0  0  0  0  0  0  0  0  0  0  0
  -16.4454   -2.3468    0.0000 C   0  0  0  0  0  0  0  0  0  0  0  0
   -7.7463   -7.6051    0.0000 C   0  0  0  0  0  0  0  0  0  0  0  0
   -4.7642   -4.1290    0.0000 P   0  0  0  0  0  0  0  0  0  0  0  0
   -1.7822   -5.6112    0.0000 P   0  0  0  0  0  0  0  0  0  0  0  0
    7.4816   -6.8993    0.0000 P   0  0  0  0  0  0  0  0  0  0  0  0
   -5.2054    5.0995    0.0000 P   0  0  0  0  0  0  0  0  0  0  0  0
    1.3763    4.2172    0.0000 P   0  0  0  0  0  0  0  0  0  0  0  0
  -10.4637   -2.6821    0.0000 P   0  0  0  0  0  0  0  0  0  0  0  0
  -13.6927    2.5409    0.0000 P   0  0  0  0  0  0  0  0  0  0  0  0
   10.6578   -6.8640    0.0000 P   0  0  0  0  0  0  0  0  0  0  0  0
  -11.2048    6.2994    0.0000 P   0  0  0  0  0  0  0  0  0  0  0  0
    5.2054    5.2583    0.0000 P   0  0  0  0  0  0  0  0  0  0  0  0
    1.6057   -4.7466    0.0000 P   0  0  0  0  0  0  0  0  0  0  0  0
   -7.8874   -4.4466    0.0000 P   0  0  0  0  0  0  0  0  0  0  0  0
   15.3691   -4.9407    0.0000 P   0  0  0  0  0  0  0  0  0  0  0  0
   -2.6821    3.3526    0.0000 P   0  0  0  0  0  0  0  0  0  0  0  0
    4.4290   -6.1935    0.0000 P   0  0  0  0  0  0  0  0  0  0  0  0
   -8.1168    6.1053    0.0000 P   0  0  0  0  0  0  0  0  0  0  0  0
   13.7986   -5.9641    0.0000 P   0  0  0  0  0  0  0  0  0  0  0  0
   12.8811   -3.0350    0.0000 P   0  0  0  0  0  0  0  0  0  0  0  0
  -14.2398    5.5936    0.0000 P   0  0  0  0  0  0  0  0  0  0  0  0
  -12.3870   -0.2823    0.0000 P   0  0  0  0  0  0  0  0  0  0  0  0
  -16.7630    1.9586    0.0000 C   0  0  0  0  0  0  0  0  0  0  0  0
   -2.8938   -2.5233    0.0000 C   0  0  0  0  0  0  0  0  0  0  0  0
   -7.1463    9.0873    0.0000 C   0  0  0  0  0  0  0  0  0  0  0  0
   17.8217   -2.9468    0.0000 C   0  0  0  0  0  0  0  0  0  0  0  0
   -8.9638   -1.4998    0.0000 C   0  0  0  0  0  0  0  0  0  0  0  0
    5.6818    2.2586    0.0000 C   0  0  0  0  0  0  0  0  0  0  0  0
   -4.7642   -6.8111    0.0000 O   0  0  0  0  0  0  0  0  0  0  0  0
   12.6164   -8.7874    0.0000 O   0  0  0  0  0  0  0  0  0  0  0  0
    5.2407   -8.7874    0.0000 O   0  0  0  0  0  0  0  0  0  0  0  0
  -10.7636   -5.3642    0.0000 O   0  0  0  0  0  0  0  0  0  0  0  0
   -0.3000    2.0292    0.0000 O   0  0  0  0  0  0  0  0  0  0  0  0
  -12.9869    8.3286    0.0000 O   0  0  0  0  0  0  0  0  0  0  0  0
  -16.3395    3.9173    0.0000 O   0  0  0  0  0  0  0  0  0  0  0  0
    1.7116   -7.3757    0.0000 O   0  0  0  0  0  0  0  0  0  0  0  0
   -2.3998    6.0170    0.0000 O   0  0  0  0  0  0  0  0  0  0  0  0
  -13.4104   -2.7527    0.0000 O   0  0  0  0  0  0  0  0  0  0  0  0
    8.8756   -9.2285    0.0000 O   0  0  0  0  0  0  0  0  0  0  0  0
   -5.6641    7.7286    0.0000 O   0  0  0  0  0  0  0  0  0  0  0  0
   15.9690   -7.6404    0.0000 O   0  0  0  0  0  0  0  0  0  0  0  0
   -6.8111   -1.9763    0.0000 O   0  0  0  0  0  0  0  0  0  0  0  0
  -15.2808    0.3706    0.0000 O   0  0  0  0  0  0  0  0  0  0  0  0
   -9.2461    8.5403    0.0000 O   0  0  0  0  0  0  0  0  0  0  0  0
   -0.7235   -2.8232    0.0000 O   0  0  0  0  0  0  0  0  0  0  0  0
    3.7232    3.1409    0.0000 O   0  0  0  0  0  0  0  0  0  0  0  0
   15.7220   -2.2939    0.0000 O   0  0  0  0  0  0  0  0  0  0  0  0
    5.6112    8.2404    0.0000 O   0  0  0  0  0  0  0  0  0  0  0  0
   10.2696   -2.6291    0.0000 O   0  0  0  0  0  0  0  0  0  0  0  0
   14.6809   -7.4816    0.0000 C   0  0  0  0  0  0  0  0  0  0  0  0
   11.2930   -8.4697    0.0000 C   0  0  0  0  0  0  0  0  0  0  0  0
  -11.3106   -4.1819    0.0000 C   0  0  0  0  0  0  0  0  0  0  0  0
  -11.7518    7.9227    0.0000 C   0  0  0  0  0  0  0  0  0  0  0  0
    0.8823    2.5409    0.0000 C   0  0  0  0  0  0  0  0  0  0  0  0
  -15.8808    5.1348    0.0000 C   0  0  0  0  0  0  0  0  0  0  0  0
    7.7110   -8.5933    0.0000 C   0  0  0  0  0  0  0  0  0  0  0  0
  -13.6045   -1.4646    0.0000 C   0  0  0  0  0  0  0  0  0  0  0  0
   -1.8528    4.8348    0.0000 C   0  0  0  0  0  0  0  0  0  0  0  0
   11.4518   -2.1704    0.0000 C   0  0  0  0  0  0  0  0  0  0  0  0
    0.9881   -6.3170    0.0000 C   0  0  0  0  0  0  0  0  0  0  0  0
   -4.8172    6.7581    0.0000 C   0  0  0  0  0  0  0  0  0  0  0  0
    4.2525   -7.8874    0.0000 C   0  0  0  0  0  0  0  0  0  0  0  0
   -5.4348   -5.6994    0.0000 C   0  0  0  0  0  0  0  0  0  0  0  0
   16.2337   -3.4585    0.0000 C   0  0  0  0  0  0  0  0  0  0  0  0
   -7.8698   -2.7174    0.0000 C   0  0  0  0  0  0  0  0  0  0  0  0
   -8.1698    7.7992    0.0000 C   0  0  0  0  0  0  0  0  0  0  0  0
    4.8877    3.6879    0.0000 C   0  0  0  0  0  0  0  0  0  0  0  0
  -15.1397    1.6763    0.0000 C   0  0  0  0  0  0  0  0  0  0  0  0
   -1.6763   -3.6526    0.0000 C   0  0  0  0  0  0  0  0  0  0  0  0
   14.9809   -6.6876    0.0000 C   0  0  0  0  0  0  0  0  0  0  0  0
   -4.6407   -5.5053    0.0000 C   0  0  0  0  0  0  0  0  0  0  0  0
  -15.2279    4.6231    0.0000 C   0  0  0  0  0  0  0  0  0  0  0  0
    4.3407    4.3055    0.0000 C   0  0  0  0  0  0  0  0  0  0  0  0
   -7.1993   -3.2114    0.0000 C   0  0  0  0  0  0  0  0  0  0  0  0
   -5.5759    6.4405    0.0000 C   0  0  0  0  0  0  0  0  0  0  0  0
  -14.3809    1.3410    0.0000 C   0  0  0  0  0  0  0  0  0  0  0  0
    1.7822   -6.0876    0.0000 C   0  0  0  0  0  0  0  0  0  0  0  0
  -10.4813   -4.0761    0.0000 C   0  0  0  0  0  0  0  0  0  0  0  0
  -12.7928   -1.6057    0.0000 C   0  0  0  0  0  0  0  0  0  0  0  0
   -8.8226    7.3052    0.0000 C   0  0  0  0  0  0  0  0  0  0  0  0
   11.7518   -7.7463    0.0000 C   0  0  0  0  0  0  0  0  0  0  0  0
    4.9407   -7.4992    0.0000 C   0  0  0  0  0  0  0  0  0  0  0  0
    0.3882    3.1938    0.0000 C   0  0  0  0  0  0  0  0  0  0  0  0
   -0.9705   -4.1290    0.0000 C   0  0  0  0  0  0  0  0  0  0  0  0
   15.4573   -3.5291    0.0000 C   0  0  0  0  0  0  0  0  0  0  0  0
    8.2933   -8.0110    0.0000 C   0  0  0  0  0  0  0  0  0  0  0  0
   -2.6644    4.7466    0.0000 C   0  0  0  0  0  0  0  0  0  0  0  0
  -12.2282    7.2346    0.0000 C   0  0  0  0  0  0  0  0  0  0  0  0
   11.5224   -2.9644    0.0000 C   0  0  0  0  0  0  0  0  0  0  0  0
    6.8993    8.2756    0.0000 C   0  0  0  0  0  0  0  0  0  0  0  0
   -3.5291   -1.9233    0.0000 C   0  0  0  0  0  0  0  0  0  0  0  0
   -9.5108   -0.8293    0.0000 C   0  0  0  0  0  0  0  0  0  0  0  0
   18.5805   -2.6644    0.0000 C   0  0  0  0  0  0  0  0  0  0  0  0
   -6.6170    9.7578    0.0000 C   0  0  0  0  0  0  0  0  0  0  0  0
    6.1053    1.4999    0.0000 C   0  0  0  0  0  0  0  0  0  0  0  0
  -17.6100    2.0998    0.0000 C   0  0  0  0  0  0  0  0  0  0  0  0
   18.7569   -1.9057    0.0000 C   0  0  0  0  0  0  0  0  0  0  0  0
  -18.1217    1.4999    0.0000 C   0  0  0  0  0  0  0  0  0  0  0  0
   -6.8993   10.5166    0.0000 C   0  0  0  0  0  0  0  0  0  0  0  0
   -9.2461   -0.0882    0.0000 C   0  0  0  0  0  0  0  0  0  0  0  0
    5.6818    0.7764    0.0000 C   0  0  0  0  0  0  0  0  0  0  0  0
   -3.3350   -1.1646    0.0000 C   0  0  0  0  0  0  0  0  0  0  0  0
    5.5583   -8.0110    0.0000 C   0  0  0  0  0  0  0  0  0  0  0  0
    3.6173    3.9349    0.0000 C   0  0  0  0  0  0  0  0  0  0  0  0
   -9.4932    7.7463    0.0000 C   0  0  0  0  0  0  0  0  0  0  0  0
  -10.1460   -4.8172    0.0000 C   0  0  0  0  0  0  0  0  0  0  0  0
    9.0344   -8.3815    0.0000 C   0  0  0  0  0  0  0  0  0  0  0  0
  -13.0046    7.4993    0.0000 C   0  0  0  0  0  0  0  0  0  0  0  0
  -12.6693   -2.3998    0.0000 C   0  0  0  0  0  0  0  0  0  0  0  0
   -0.4235    2.8585    0.0000 C   0  0  0  0  0  0  0  0  0  0  0  0
  -15.5102    3.8820    0.0000 C   0  0  0  0  0  0  0  0  0  0  0  0
  -14.4691    0.5294    0.0000 C   0  0  0  0  0  0  0  0  0  0  0  0
   12.5282   -7.9404    0.0000 C   0  0  0  0  0  0  0  0  0  0  0  0
   -2.9997    5.4700    0.0000 C   0  0  0  0  0  0  0  0  0  0  0  0
   -4.2172   -6.2111    0.0000 C   0  0  0  0  0  0  0  0  0  0  0  0
   15.1044   -2.8232    0.0000 C   0  0  0  0  0  0  0  0  0  0  0  0
    2.2762   -6.8111    0.0000 C   0  0  0  0  0  0  0  0  0  0  0  0
   -0.3529   -3.5820    0.0000 C   0  0  0  0  0  0  0  0  0  0  0  0
   -6.0876    7.0405    0.0000 C   0  0  0  0  0  0  0  0  0  0  0  0
   -6.5464   -2.7350    0.0000 C   0  0  0  0  0  0  0  0  0  0  0  0
   15.8631   -6.7758    0.0000 C   0  0  0  0  0  0  0  0  0  0  0  0
    5.8406    7.4463    0.0000 C   0  0  0  0  0  0  0  0  0  0  0  0
   10.7636   -3.2820    0.0000 C   0  0  0  0  0  0  0  0  0  0  0  0
   -0.8823   -4.9407    0.0000 O   0  0  0  0  0  0  0  0  0  0  0  0
    8.2580   -7.2346    0.0000 O   0  0  0  0  0  0  0  0  0  0  0  0
   -8.8403    6.5111    0.0000 O   0  0  0  0  0  0  0  0  0  0  0  0
    4.4466    5.0642    0.0000 O   0  0  0  0  0  0  0  0  0  0  0  0
  -10.0578   -3.4055    0.0000 O   0  0  0  0  0  0  0  0  0  0  0  0
    2.0821   -5.3642    0.0000 O   0  0  0  0  0  0  0  0  0  0  0  0
  -12.0164    6.4935    0.0000 O   0  0  0  0  0  0  0  0  0  0  0  0
   14.9809   -4.2349    0.0000 O   0  0  0  0  0  0  0  0  0  0  0  0
  -14.4691    4.7995    0.0000 O   0  0  0  0  0  0  0  0  0  0  0  0
  -13.7104    1.7116    0.0000 O   0  0  0  0  0  0  0  0  0  0  0  0
    0.5823    3.9702    0.0000 O   0  0  0  0  0  0  0  0  0  0  0  0
  -12.1929   -1.0940    0.0000 O   0  0  0  0  0  0  0  0  0  0  0  0
   12.1576   -3.3879    0.0000 O   0  0  0  0  0  0  0  0  0  0  0  0
   -4.2878   -4.7995    0.0000 O   0  0  0  0  0  0  0  0  0  0  0  0
   -3.0879    4.0761    0.0000 O   0  0  0  0  0  0  0  0  0  0  0  0
    5.0818   -6.7052    0.0000 O   0  0  0  0  0  0  0  0  0  0  0  0
   14.5927   -5.9994    0.0000 O   0  0  0  0  0  0  0  0  0  0  0  0
   11.4694   -6.9875    0.0000 O   0  0  0  0  0  0  0  0  0  0  0  0
   -5.7877    5.6818    0.0000 O   0  0  0  0  0  0  0  0  0  0  0  0
   -7.1640   -4.0231    0.0000 O   0  0  0  0  0  0  0  0  0  0  0  0
    6.6876    7.4640    0.0000 C   0  0  0  0  0  0  0  0  0  0  0  0
    2.9115    4.3055    0.0000 C   0  0  0  0  0  0  0  0  0  0  0  0
    6.3700   -7.8522    0.0000 C   0  0  0  0  0  0  0  0  0  0  0  0
  -11.9459   -2.7527    0.0000 C   0  0  0  0  0  0  0  0  0  0  0  0
   13.1457   -7.4287    0.0000 C   0  0  0  0  0  0  0  0  0  0  0  0
   -5.7700   -3.0350    0.0000 C   0  0  0  0  0  0  0  0  0  0  0  0
   -1.1293    3.2997    0.0000 C   0  0  0  0  0  0  0  0  0  0  0  0
   -3.8114    5.5936    0.0000 C   0  0  0  0  0  0  0  0  0  0  0  0
  -13.8516    0.0176    0.0000 C   0  0  0  0  0  0  0  0  0  0  0  0
    3.0703   -6.8287    0.0000 C   0  0  0  0  0  0  0  0  0  0  0  0
   -6.8993    6.9522    0.0000 C   0  0  0  0  0  0  0  0  0  0  0  0
  -15.0514    3.2114    0.0000 C   0  0  0  0  0  0  0  0  0  0  0  0
  -10.2519    7.4463    0.0000 C   0  0  0  0  0  0  0  0  0  0  0  0
  -13.6398    6.9875    0.0000 C   0  0  0  0  0  0  0  0  0  0  0  0
   16.4454   -6.1229    0.0000 C   0  0  0  0  0  0  0  0  0  0  0  0
   -3.4055   -6.2464    0.0000 C   0  0  0  0  0  0  0  0  0  0  0  0
    0.4411   -3.7761    0.0000 C   0  0  0  0  0  0  0  0  0  0  0  0
   -9.3344   -4.9407    0.0000 C   0  0  0  0  0  0  0  0  0  0  0  0
    9.7402   -8.0463    0.0000 C   0  0  0  0  0  0  0  0  0  0  0  0
   14.3456   -2.6291    0.0000 C   0  0  0  0  0  0  0  0  0  0  0  0
    5.3818    6.7581    0.0000 C   0  0  0  0  0  0  0  0  0  0  0  0
  -17.8747    3.7408    0.0000 O   0  0  0  0  0  0  0  0  0  0  0  0
  -13.2693    9.8637    0.0000 O   0  0  0  0  0  0  0  0  0  0  0  0
   -5.5936   -8.1345    0.0000 O   0  0  0  0  0  0  0  0  0  0  0  0
   -1.4646    7.2522    0.0000 O   0  0  0  0  0  0  0  0  0  0  0  0
  -14.6632   -3.6526    0.0000 O   0  0  0  0  0  0  0  0  0  0  0  0
  -11.7165   -6.5993    0.0000 O   0  0  0  0  0  0  0  0  0  0  0  0
   12.9340  -10.3401    0.0000 O   0  0  0  0  0  0  0  0  0  0  0  0
   -5.0818    9.1756    0.0000 O   0  0  0  0  0  0  0  0  0  0  0  0
    8.8226  -10.7813    0.0000 O   0  0  0  0  0  0  0  0  0  0  0  0
    4.8172  -10.3401    0.0000 O   0  0  0  0  0  0  0  0  0  0  0  0
   16.7277   -1.1117    0.0000 O   0  0  0  0  0  0  0  0  0  0  0  0
  -16.7277   -0.1941    0.0000 O   0  0  0  0  0  0  0  0  0  0  0  0
   -9.0697   10.0931    0.0000 O   0  0  0  0  0  0  0  0  0  0  0  0
   -7.0405   -0.4058    0.0000 O   0  0  0  0  0  0  0  0  0  0  0  0
    3.6526    1.5704    0.0000 O   0  0  0  0  0  0  0  0  0  0  0  0
   -1.0764   -1.4293    0.0000 O   0  0  0  0  0  0  0  0  0  0  0  0
  -14.2398    3.2820    0.0000 O   0  0  0  0  0  0  0  0  0  0  0  0
   -5.6288   -3.8114    0.0000 O   0  0  0  0  0  0  0  0  0  0  0  0
    5.7347    6.0347    0.0000 O   0  0  0  0  0  0  0  0  0  0  0  0
   -2.9644   -5.5583    0.0000 O   0  0  0  0  0  0  0  0  0  0  0  0
  -13.5163    6.1759    0.0000 O   0  0  0  0  0  0  0  0  0  0  0  0
    9.7931   -7.2346    0.0000 O   0  0  0  0  0  0  0  0  0  0  0  0
    2.2586    3.8290    0.0000 O   0  0  0  0  0  0  0  0  0  0  0  0
   -1.8528    2.9468    0.0000 O   0  0  0  0  0  0  0  0  0  0  0  0
  -10.3578    6.6346    0.0000 O   0  0  0  0  0  0  0  0  0  0  0  0
   -4.3055    4.9583    0.0000 O   0  0  0  0  0  0  0  0  0  0  0  0
   -7.2169    6.2111    0.0000 O   0  0  0  0  0  0  0  0  0  0  0  0
  -11.2930   -2.2939    0.0000 O   0  0  0  0  0  0  0  0  0  0  0  0
   16.1631   -5.3818    0.0000 O   0  0  0  0  0  0  0  0  0  0  0  0
   13.7986   -3.2467    0.0000 O   0  0  0  0  0  0  0  0  0  0  0  0
   13.0222   -6.6170    0.0000 O   0  0  0  0  0  0  0  0  0  0  0  0
    6.5993   -7.0758    0.0000 O   0  0  0  0  0  0  0  0  0  0  0  0
  -13.0928    0.3000    0.0000 O   0  0  0  0  0  0  0  0  0  0  0  0
   -8.8226   -4.3055    0.0000 O   0  0  0  0  0  0  0  0  0  0  0  0
    0.6882   -4.5525    0.0000 O   0  0  0  0  0  0  0  0  0  0  0  0
    3.4761   -6.1406    0.0000 O   0  0  0  0  0  0  0  0  0  0  0  0
    5.5936   12.2635    0.0000 O   0  0  0  0  0  0  0  0  0  0  0  0
   15.4043  -11.6988    0.0000 O   0  0  0  0  0  0  0  0  0  0  0  0
    1.3410   -1.6939    0.0000 O   0  0  0  0  0  0  0  0  0  0  0  0
   -1.7116   -9.4226    0.0000 O   0  0  0  0  0  0  0  0  0  0  0  0
    8.9815    1.0058    0.0000 O   0  0  0  0  0  0  0  0  0  0  0  0
   -3.0879    2.5939    0.0000 O   0  0  0  0  0  0  0  0  0  0  0  0
    5.9288    4.8348    0.0000 O   0  0  0  0  0  0  0  0  0  0  0  0
   -8.0463    5.2583    0.0000 O   0  0  0  0  0  0  0  0  0  0  0  0
    1.4822    5.0113    0.0000 O   0  0  0  0  0  0  0  0  0  0  0  0
   -5.3818    4.2525    0.0000 O   0  0  0  0  0  0  0  0  0  0  0  0
  -11.8047    0.3353    0.0000 O   0  0  0  0  0  0  0  0  0  0  0  0
   -1.6763   -6.7581    0.0000 O   0  0  0  0  0  0  0  0  0  0  0  0
   -4.4290   -3.3526    0.0000 O   0  0  0  0  0  0  0  0  0  0  0  0
    7.3934   -6.0700    0.0000 O   0  0  0  0  0  0  0  0  0  0  0  0
   13.4457   -5.2407    0.0000 O   0  0  0  0  0  0  0  0  0  0  0  0
    4.5172   -5.3642    0.0000 O   0  0  0  0  0  0  0  0  0  0  0  0
  -13.0046    2.9821    0.0000 O   0  0  0  0  0  0  0  0  0  0  0  0
    1.9586   -4.0231    0.0000 O   0  0  0  0  0  0  0  0  0  0  0  0
  -10.0402   -1.9057    0.0000 O   0  0  0  0  0  0  0  0  0  0  0  0
   12.8811   -2.2233    0.0000 O   0  0  0  0  0  0  0  0  0  0  0  0
  -14.8044    6.2464    0.0000 O   0  0  0  0  0  0  0  0  0  0  0  0
   14.9103   -5.6465    0.0000 O   0  0  0  0  0  0  0  0  0  0  0  0
   10.3401   -6.0700    0.0000 O   0  0  0  0  0  0  0  0  0  0  0  0
  -10.9224    5.4877    0.0000 O   0  0  0  0  0  0  0  0  0  0  0  0
   -7.9227   -5.2759    0.0000 O   0  0  0  0  0  0  0  0  0  0  0  0
   10.7283  -12.2635    0.0000 O   0  0  0  0  0  0  0  0  0  0  0  0
  -14.5927   -6.1229    0.0000 O   0  0  0  0  0  0  0  0  0  0  0  0
    1.4116    6.7934    0.0000 O   0  0  0  0  0  0  0  0  0  0  0  0
   -2.2057    9.5108    0.0000 O   0  0  0  0  0  0  0  0  0  0  0  0
    1.9586  -11.0107    0.0000 O   0  0  0  0  0  0  0  0  0  0  0  0
  -19.5510    6.1053    0.0000 O   0  0  0  0  0  0  0  0  0  0  0  0
   -8.4874   -7.9757    0.0000 O   0  0  0  0  0  0  0  0  0  0  0  0
  -17.2747   -2.4174    0.0000 O   0  0  0  0  0  0  0  0  0  0  0  0
    6.2288  -12.1223    0.0000 O   0  0  0  0  0  0  0  0  0  0  0  0
  -10.9754   11.6812    0.0000 O   0  0  0  0  0  0  0  0  0  0  0  0
    5.0466    6.0700    0.0000 S   0  0  0  0  0  0  0  0  0  0  0  0
    1.6763    3.3526    0.0000 S   0  0  0  0  0  0  0  0  0  0  0  0
    0.8823   -5.2936    0.0000 S   0  0  0  0  0  0  0  0  0  0  0  0
    7.0581   -7.6404    0.0000 S   0  0  0  0  0  0  0  0  0  0  0  0
   16.1102   -4.6407    0.0000 S   0  0  0  0  0  0  0  0  0  0  0  0
  -13.4104    5.4700    0.0000 S   0  0  0  0  0  0  0  0  0  0  0  0
  -13.1987   -0.3882    0.0000 S   0  0  0  0  0  0  0  0  0  0  0  0
   10.4107   -7.6757    0.0000 S   0  0  0  0  0  0  0  0  0  0  0  0
   13.2693   -3.7761    0.0000 S   0  0  0  0  0  0  0  0  0  0  0  0
   -2.5233   -4.6760    0.0000 S   0  0  0  0  0  0  0  0  0  0  0  0
  -10.9224    7.0934    0.0000 S   0  0  0  0  0  0  0  0  0  0  0  0
    3.8467   -6.8111    0.0000 S   0  0  0  0  0  0  0  0  0  0  0  0
  -11.2401   -3.0173    0.0000 S   0  0  0  0  0  0  0  0  0  0  0  0
   -7.6228    6.8111    0.0000 S   0  0  0  0  0  0  0  0  0  0  0  0
   13.7986   -6.8993    0.0000 S   0  0  0  0  0  0  0  0  0  0  0  0
  -14.5221    2.6292    0.0000 S   0  0  0  0  0  0  0  0  0  0  0  0
   -4.5525    5.6112    0.0000 S   0  0  0  0  0  0  0  0  0  0  0  0
   -1.9057    3.6879    0.0000 S   0  0  0  0  0  0  0  0  0  0  0  0
   -8.3462   -3.7584    0.0000 S   0  0  0  0  0  0  0  0  0  0  0  0
   -5.5053   -4.5348    0.0000 S   0  0  0  0  0  0  0  0  0  0  0  0
    7.5522   -1.3940    0.0000 N   0  0  0  0  0  0  0  0  0  0  0  0
    3.4232   10.3931    0.0000 N   0  0  0  0  0  0  0  0  0  0  0  0
   -1.4293   -0.7764    0.0000 N   0  0  0  0  0  0  0  0  0  0  0  0
   17.8394  -10.1460    0.0000 N   0  0  0  0  0  0  0  0  0  0  0  0
    0.9881  -10.3401    0.0000 N   0  0  0  0  0  0  0  0  0  0  0  0
   19.5510   -1.6763    0.0000 N   0  0  0  0  0  0  0  0  0  0  0  0
    6.1229    0.0706    0.0000 N   0  0  0  0  0  0  0  0  0  0  0  0
  -18.9510    1.6587    0.0000 N   0  0  0  0  0  0  0  0  0  0  0  0
   -6.3700   11.1695    0.0000 N   0  0  0  0  0  0  0  0  0  0  0  0
   -9.7931    0.5646    0.0000 N   0  0  0  0  0  0  0  0  0  0  0  0
   -3.9525   -0.5646    0.0000 N   0  0  0  0  0  0  0  0  0  0  0  0
    5.5053  -10.6578    0.0000 C   0  0  0  0  0  0  0  0  0  0  0  0
    9.6696  -11.0636    0.0000 C   0  0  0  0  0  0  0  0  0  0  0  0
  -16.5513   -0.9881    0.0000 C   0  0  0  0  0  0  0  0  0  0  0  0
   -2.0645    7.9227    0.0000 C   0  0  0  0  0  0  0  0  0  0  0  0
  -14.3103   -4.5701    0.0000 C   0  0  0  0  0  0  0  0  0  0  0  0
    1.2175    5.5936    0.0000 C   0  0  0  0  0  0  0  0  0  0  0  0
  -10.0049   10.3931    0.0000 C   0  0  0  0  0  0  0  0  0  0  0  0
    1.6057   -9.4226    0.0000 C   0  0  0  0  0  0  0  0  0  0  0  0
  -18.2276    7.0052    0.0000 C   0  0  0  0  0  0  0  0  0  0  0  0
   -8.3815   -6.3876    0.0000 C   0  0  0  0  0  0  0  0  0  0  0  0
    7.1816    6.8464    0.0000 O   0  0  0  0  0  0  0  0  0  0  0  0
   10.5519   -4.0584    0.0000 C   0  0  0  0  0  0  0  0  0  0  0  0
    9.7931   -4.3055    0.0000 O   0  0  0  0  0  0  0  0  0  0  0  0
  8  1  1  0
 24  1  2  0
 33  1  1  0
  2  6  1  0
 23  2  2  0
 34  2  1  0
  3 10  1  0
 21  3  2  0
 32  3  1  0
  4  7  1  0
 22  4  2  0
 35  4  1  0
  5  9  1  0
 25  5  2  0
 36  5  1  0
 71  6  1  1
132  6  1  0
 72  7  1  6
133  7  1  0
 69  8  1  1
134  8  1  0
 83  9  1  1
130  9  1  0
 70 10  1  1
131 10  1  0
 74 11  1  1
 42 11  1  0
109 11  1  0
 81 12  1  1
 45 12  1  0
106 12  1  0
 82 13  1  1
 39 13  1  0
111 13  1  0
 77 14  1  1
 41 14  1  0
107 14  1  0
 75 15  1  1
 44 15  1  0
108 15  1  0
 79 16  1  1
 46 16  1  0
113 16  1  0
 80 17  1  1
 43 17  1  0
112 17  1  0
 76 18  1  1
 40 18  1  0
114 18  1  0
 73 19  1  1
 38 19  1  0
110 19  1  0
 78 20  1  1
 37 20  1  0
105 20  1  0
101 21  1  0
 85 21  1  0
103 22  1  0
 86 22  1  0
104 23  1  0
 88 23  1  0
 84 24  1  0
100 24  1  0
102 25  1  0
 87 25  1  0
 89 26  1  6
 49 26  1  0
166 26  1  0
 91 27  1  1
 48 27  1  0
167 27  1  0
 94 28  1  6
 47 28  1  0
170 28  1  0
 90 29  1  1
 50 29  1  0
168 29  1  0
 92 30  1  1
 51 30  1  0
165 30  1  0
 93 31  1  6
 52 31  1  0
169 31  1  0
115 32  2  0
117 33  2  0
116 34  2  0
118 35  2  0
119 36  2  0
 54 37  1  0
309 37  2  0
 53 38  1  0
315 38  2  0
 58 39  1  0
307 39  2  0
 59 40  1  0
313 40  2  0
 62 41  1  0
308 41  2  0
 55 42  1  0
312 42  2  0
 56 43  1  0
316 43  2  0
 57 44  1  0
314 44  2  0
 61 45  1  0
311 45  2  0
 60 46  1  0
310 46  2  0
 68 47  1  0
321 47  2  0
 65 48  1  0
319 48  2  0
 67 49  1  0
322 49  2  0
 63 50  1  0
317 50  2  0
 64 51  1  0
318 51  2  0
 66 52  1  0
320 52  2  0
 53141  1  0
 54144  1  0
 55137  1  0
 56135  1  0
142 57  1  0
140 58  1  0
 59136  1  0
139 60  1  0
 61143  1  0
138 62  1  0
 63239  2  0
240 64  2  0
241 65  2  0
 66242  2  0
 67244  2  0
 68243  2  0
191 69  1  0
201 69  1  0
 70178  1  0
 70202  1  0
 71183  1  0
 71192  1  0
 72175  1  0
 72196  1  0
 73181  1  0
 73198  1  0
 74174  1  0
 74194  1  0
 75182  1  0
203 75  1  0
 76172  1  0
 76193  1  0
 77176  1  0
195 77  1  0
 78171  1  0
 78205  1  0
 79179  1  0
200 79  1  0
 80173  1  0
 80204  1  0
 81180  1  0
 81199  1  0
 82177  1  0
197 82  1  0
 83190  1  0
 83232  1  0
134 84  2  0
 85131  2  0
 86133  2  0
 87130  2  0
 88132  2  0
 89187  1  0
 89211  1  0
 90189  1  0
 90206  1  0
 91186  1  0
208 91  1  0
 92185  1  0
210 92  1  0
 93184  1  0
 93207  1  0
 94188  1  0
 94209  1  0
 95116  1  0
 95104  1  0
 96118  1  0
 96103  1  0
 97115  1  0
 97101  1  0
 98117  1  0
 98100  1  0
 99119  1  0
 99102  1  0
347100  2  0
346101  2  0
343102  2  0
345103  2  0
344104  2  0
129105  2  0
124106  2  0
128107  2  0
120108  2  0
123109  2  0
122110  2  0
121111  2  0
127112  2  0
126113  2  0
125114  2  0
402115  1  0
401116  1  0
398117  1  0
400118  1  0
399119  1  0
142120  1  0
412120  1  0
140121  1  0
417121  1  0
141122  1  0
409122  1  0
137123  1  0
413123  1  0
143124  1  0
411124  1  0
136125  1  0
410125  1  0
139126  1  0
414126  1  0
135127  1  0
416127  1  0
138128  1  0
415128  1  0
144129  1  0
418129  1  0
372135  2  0
368136  2  0
369137  2  0
377138  2  0
370139  2  0
373140  2  0
376141  2  0
371142  2  0
375143  2  0
374144  2  0
145279  1  0
324145  1  0
355145  2  0
397145  1  0
146266  1  0
326146  1  0
354146  2  0
387146  1  0
147267  1  0
338147  1  0
356147  2  0
381147  1  0
148284  1  0
332148  1  0
352148  2  0
394148  1  0
149276  1  0
329149  1  0
351149  2  0
379149  1  0
150270  1  0
334150  1  0
361150  2  0
390150  1  0
151275  1  0
323151  1  0
359151  2  0
393151  1  0
152283  1  0
328152  1  0
365152  2  0
385152  1  0
153272  1  0
331153  1  0
366153  2  0
388153  1  0
154269  1  0
325154  1  0
349154  2  0
378154  1  0
155271  1  0
341155  1  0
360155  2  0
380155  1  0
156285  1  0
340156  1  0
367156  2  0
396156  1  0
157273  1  0
335157  1  0
364157  2  0
382157  1  0
158280  1  0
330158  1  0
348158  2  0
395158  1  0
159281  1  0
342159  1  0
358159  2  0
389159  1  0
160268  1  0
333160  1  0
350160  2  0
391160  1  0
161282  1  0
337161  1  0
357161  2  0
392161  1  0
162278  1  0
336162  1  0
362162  2  0
386162  1  0
163274  1  0
327163  1  0
363163  2  0
383163  1  0
164277  1  0
339164  1  0
353164  2  0
384164  1  0
238165  2  0
233166  2  0
236167  2  0
235168  2  0
234169  2  0
237170  2  0
171257  1  0
172255  1  0
173245  1  0
174248  1  0
175252  1  0
176250  1  0
177253  1  0
178259  1  0
179256  1  0
180251  1  0
181249  1  0
182261  1  0
183263  1  0
184262  1  0
185254  1  0
186247  1  0
187260  1  0
188246  1  0
189258  1  0
190264  1  0
265191  1  0
192212  1  0
193223  1  0
194220  1  0
195230  1  0
196225  1  0
197214  1  0
198228  1  0
199221  1  0
200229  1  0
231201  1  0
202219  1  0
203217  1  0
204224  1  0
205213  1  0
206227  1  0
207216  1  0
208222  1  0
209215  1  0
210218  1  0
211226  1  0
212263  1  0
212282  1  6
213257  1  0
213279  1  6
214253  1  0
214274  1  6
215246  1  0
215269  1  1
216262  1  0
216285  1  1
217261  1  0
217284  1  6
218254  1  0
218275  1  6
219259  1  0
219271  1  6
220248  1  0
220270  1  6
221251  1  0
221277  1  6
222247  1  0
222268  1  6
223255  1  0
223283  1  6
224245  1  0
224281  1  6
225252  1  0
225276  1  1
226260  1  0
226266  1  1
227258  1  0
227273  1  6
228249  1  0
228267  1  6
229256  1  0
229280  1  6
230250  1  0
230272  1  6
231278  1  6
265231  1  0
232286  1  0
244233  1  0
242234  1  0
239235  1  0
241236  1  0
243237  1  0
240238  1  0
403239  1  0
405240  1  0
406241  1  0
407242  1  0
404243  1  0
408244  1  0
245288  1  1
246287  1  6
247298  1  1
248303  1  1
249304  1  1
250299  1  1
251289  1  1
252292  1  6
253297  1  1
254294  1  1
255290  1  1
256293  1  1
257301  1  1
258305  1  1
259295  1  1
260302  1  6
261296  1  1
262291  1  6
263300  1  1
264306  1  1
286264  1  0
265420  1  1
286419  1  6
287329  1  0
288338  1  0
289334  1  0
290337  1  0
291324  1  0
292330  1  0
293332  1  0
294339  1  0
295342  1  0
296333  1  0
297323  1  0
298331  1  0
299327  1  0
300335  1  0
301326  1  0
302341  1  0
303340  1  0
304328  1  0
305336  1  0
306325  1  0
421420  1  0
M  END
