 
 
 
 31 36  0  0  1  0  0  0  0  0999 V2000
   18.1124  -15.6040    0.0000 C   0  0  2  0  0  0  0  0  0  0  0  0
   19.2968  -16.3007    0.0000 C   0  0  1  0  0  0  0  0  0  0  0  0
   16.9282  -16.3007    0.0000 C   0  0  2  0  0  0  0  0  0  0  0  0
   18.1124  -14.2803    0.0000 C   0  0  0  0  0  0  0  0  0  0  0  0
   19.2968  -14.9074    0.0000 C   0  0  0  0  0  0  0  0  0  0  0  0
   20.4811  -15.6736    0.0000 C   0  0  2  0  0  0  0  0  0  0  0  0
   19.2968  -17.6940    0.0000 C   0  0  0  0  0  0  0  0  0  0  0  0
   18.7395  -17.3456    0.0000 C   0  0  0  0  0  0  0  0  0  0  0  0
   16.9282  -17.6243    0.0000 C   0  0  2  0  0  0  0  0  0  0  0  0
   16.2315  -14.7680    0.0000 O   0  0  0  0  0  0  0  0  0  0  0  0
   16.9282  -13.5836    0.0000 C   0  0  0  0  0  0  0  0  0  0  0  0
   19.2968  -13.5836    0.0000 C   0  0  0  0  0  0  0  0  0  0  0  0
   21.6653  -14.9073    0.0000 C   0  0  0  0  0  0  0  0  0  0  0  0
   21.6653  -16.3007    0.0000 N   0  0  2  0  0  0  0  0  0  0  0  0
   20.4811  -14.2803    0.0000 C   0  0  0  0  0  0  0  0  0  0  0  0
   18.1124  -18.3209    0.0000 C   0  0  1  0  0  0  0  0  0  0  0  0
   17.5551  -16.6490    0.0000 C   0  0  0  0  0  0  0  0  0  0  0  0
   15.5349  -17.6243    0.0000 O   0  0  0  0  0  0  0  0  0  0  0  0
   16.9281  -12.1903    0.0000 C   0  0  0  0  0  0  0  0  0  0  0  0
   19.2968  -12.1903    0.0000 C   0  0  0  0  0  0  0  0  0  0  0  0
   22.8497  -15.6736    0.0000 C   0  0  0  0  0  0  0  0  0  0  0  0
   18.1124  -19.7142    0.0000 C   0  0  1  0  0  0  0  0  0  0  0  0
   14.4202  -18.5996    0.0000 C   0  0  0  0  0  0  0  0  0  0  0  0
   18.1821  -11.4937    0.0000 C   0  0  0  0  0  0  0  0  0  0  0  0
   15.7438  -11.4937    0.0000 O   0  0  0  0  0  0  0  0  0  0  0  0
   19.2271  -20.4109    0.0000 C   0  0  0  0  0  0  0  0  0  0  0  0
   16.8585  -20.3412    0.0000 O   0  0  0  0  0  0  0  0  0  0  0  0
   16.8585  -19.0176    0.0000 C   0  0  0  0  0  0  0  0  0  0  0  0
   20.4114  -19.7142    0.0000 C   0  0  0  0  0  0  0  0  0  0  0  0
   21.5958  -20.4109    0.0000 C   0  0  0  0  0  0  0  0  0  0  0  0
   19.2968  -19.0176    0.0000 H   0  0  0  0  0  0  0  0  0  0  0  0
  1  3  1  0     0  0
  1  4  1  0     0  0
  1  5  1  1     0  0
  2  6  1  0     0  0
  2  7  1  0     0  0
  2  8  1  6     0  0
  3  9  1  0     0  0
  3 10  1  6     0  0
  4 11  1  0     0  0
  4 12  2  0     0  0
  5 13  1  0     0  0
  6 14  1  1     0  0
  6 15  1  0     0  0
  7 16  1  0     0  0
  8 17  2  0     0  0
  9 18  1  0     0  0
 11 19  2  0     0  0
 12 20  1  0     0  0
 14 21  1  0     0  0
 16 22  1  0     0  0
 18 23  1  0     0  0
 19 24  1  0     0  0
 19 25  1  0     0  0
 22 26  1  0     0  0
 22 27  1  1     0  0
 22 28  1  6     0  0
 26 29  1  0     0  0
  9 16  1  0     0  0
  9 17  1  6     0  0
 10 11  1  0     0  0
 12 15  1  0     0  0
 14 13  1  1     0  0
 20 24  2  0     0  0
 29 30  1  0     0  0
  1  2  1  0     0  0
 16 31  1  1     0  0
M  END
