64108-58-3.mol
     RDKit          2D

 45 45  0  0  0  0  0  0  0  0999 V2000
   -1.8197   -1.5269    0.0000 O   0  0  0  0  0  0  0  0  0  0  0  0
   -2.2322   -0.8125    0.0000 C   0  0  0  0  0  0  0  0  0  0  0  0
   -2.3755    0.0000    0.0000 C   0  0  0  0  0  0  0  0  0  0  0  0
   -2.2322    0.8125    0.0000 N   0  0  0  0  0  0  0  0  0  0  0  0
   -1.8197    1.5269    0.0000 C   0  0  0  0  0  0  0  0  0  0  0  0
   -1.1877    2.0572    0.0000 C   0  0  0  0  0  0  0  0  0  0  0  0
   -0.4125    2.3394    0.0000 O   0  0  0  0  0  0  0  0  0  0  0  0
    0.4125    2.3394    0.0000 C   0  0  0  0  0  0  0  0  0  0  0  0
    1.1877    2.0572    0.0000 C   0  0  0  0  0  0  0  0  0  0  0  0
    1.8197    1.5269    0.0000 N   0  0  0  0  0  0  0  0  0  0  0  0
    2.2322    0.8125    0.0000 C   0  0  0  0  0  0  0  0  0  0  0  0
    2.3755    0.0000    0.0000 C   0  0  0  0  0  0  0  0  0  0  0  0
    2.2322   -0.8125    0.0000 O   0  0  0  0  0  0  0  0  0  0  0  0
    1.8197   -1.5269    0.0000 C   0  0  0  0  0  0  0  0  0  0  0  0
    1.1877   -2.0572    0.0000 C   0  0  0  0  0  0  0  0  0  0  0  0
    0.4125   -2.3394    0.0000 N   0  0  0  0  0  0  0  0  0  0  0  0
   -0.4125   -2.3394    0.0000 C   0  0  0  0  0  0  0  0  0  0  0  0
   -1.1877   -2.0572    0.0000 C   0  0  0  0  0  0  0  0  0  0  0  0
   -3.0075   -1.0946    0.0000 O   0  0  0  0  0  0  0  0  0  0  0  0
   -2.4517    2.0572    0.0000 O   0  0  0  0  0  0  0  0  0  0  0  0
    0.5558    3.1519    0.0000 O   0  0  0  0  0  0  0  0  0  0  0  0
    3.0075    1.0946    0.0000 O   0  0  0  0  0  0  0  0  0  0  0  0
    2.4517   -2.0572    0.0000 O   0  0  0  0  0  0  0  0  0  0  0  0
   -0.5558   -3.1519    0.0000 O   0  0  0  0  0  0  0  0  0  0  0  0
   -1.1877   -3.4862    0.0000 C   0  0  0  0  0  0  0  0  0  0  0  0
   -1.6002   -2.7717    0.0000 C   0  0  0  0  0  0  0  0  0  0  0  0
   -2.4252   -2.7717    0.0000 C   0  0  0  0  0  0  0  0  0  0  0  0
    1.1877   -3.4862    0.0000 C   0  0  0  0  0  0  0  0  0  0  0  0
    1.6002   -2.7717    0.0000 C   0  0  0  0  0  0  0  0  0  0  0  0
    2.4252   -2.7717    0.0000 C   0  0  0  0  0  0  0  0  0  0  0  0
    3.6130    0.7145    0.0000 C   0  0  0  0  0  0  0  0  0  0  0  0
    3.2005    0.0000    0.0000 C   0  0  0  0  0  0  0  0  0  0  0  0
    3.6130   -0.7145    0.0000 C   0  0  0  0  0  0  0  0  0  0  0  0
    1.1877    3.4862    0.0000 C   0  0  0  0  0  0  0  0  0  0  0  0
    1.6002    2.7717    0.0000 C   0  0  0  0  0  0  0  0  0  0  0  0
    2.4252    2.7717    0.0000 C   0  0  0  0  0  0  0  0  0  0  0  0
   -2.4252    2.7717    0.0000 C   0  0  0  0  0  0  0  0  0  0  0  0
   -1.6002    2.7717    0.0000 C   0  0  0  0  0  0  0  0  0  0  0  0
   -1.1877    3.4862    0.0000 C   0  0  0  0  0  0  0  0  0  0  0  0
   -3.6130   -0.7145    0.0000 C   0  0  0  0  0  0  0  0  0  0  0  0
   -3.2005    0.0000    0.0000 C   0  0  0  0  0  0  0  0  0  0  0  0
   -3.6130    0.7145    0.0000 C   0  0  0  0  0  0  0  0  0  0  0  0
    0.5558   -3.1519    0.0000 C   0  0  0  0  0  0  0  0  0  0  0  0
    2.4517    2.0572    0.0000 C   0  0  0  0  0  0  0  0  0  0  0  0
   -3.0075    1.0946    0.0000 C   0  0  0  0  0  0  0  0  0  0  0  0
  1  2  1  0
  2  3  1  0
  3  4  1  0
  4  5  1  0
  5  6  1  0
  6  7  1  0
  7  8  1  0
  8  9  1  0
  9 10  1  0
 10 11  1  0
 11 12  1  0
 12 13  1  0
 13 14  1  0
 14 15  1  0
 15 16  1  0
 16 17  1  0
 17 18  1  0
  1 18  1  0
  2 19  2  0
  5 20  2  0
  8 21  2  0
 11 22  2  0
 14 23  2  0
 17 24  2  0
 25 26  1  0
 26 27  1  0
 18 26  1  0
 28 29  1  0
 29 30  1  0
 15 29  1  6
 31 32  1  0
 32 33  1  0
 12 32  1  0
 34 35  1  0
 35 36  1  0
  9 35  1  6
 37 38  1  0
 38 39  1  0
  6 38  1  0
 40 41  1  0
 41 42  1  0
  3 41  1  6
 16 43  1  0
 10 44  1  0
  4 45  1  0
M  END
