131750181
     RDKit          2D

206209  0  0  1  0  0  0  0  0999 V2000
    8.3356   -6.2500    0.0000 S   0  0  0  0  0  0  0  0  0  0  0  0
   23.2594   -8.7500    0.0000 S   0  0  0  0  0  0  0  0  0  0  0  0
    5.6036   -4.7500    0.0000 O   0  0  0  0  0  0  0  0  0  0  0  0
    6.8671    2.2500    0.0000 O   0  0  0  0  0  0  0  0  0  0  0  0
    8.3356   -2.2500    0.0000 O   0  0  0  0  0  0  0  0  0  0  0  0
   19.2639   -2.2500    0.0000 O   0  0  0  0  0  0  0  0  0  0  0  0
   21.9959   -4.7500    0.0000 O   0  0  0  0  0  0  0  0  0  0  0  0
   15.0632    4.7500    0.0000 O   0  0  0  0  0  0  0  0  0  0  0  0
    9.5991    4.7500    0.0000 O   0  0  0  0  0  0  0  0  0  0  0  0
   11.0677   -4.7500    0.0000 O   0  0  0  0  0  0  0  0  0  0  0  0
   23.2594  -11.7500    0.0000 O   0  0  0  0  0  0  0  0  0  0  0  0
   12.3312    2.2500    0.0000 O   0  0  0  0  0  0  0  0  0  0  0  0
   16.5318   -4.7500    0.0000 O   0  0  0  0  0  0  0  0  0  0  0  0
   17.7953    2.2500    0.0000 O   0  0  0  0  0  0  0  0  0  0  0  0
   13.7998   -2.2500    0.0000 O   0  0  0  0  0  0  0  0  0  0  0  0
   20.5273   -9.2500    0.0000 O   0  0  0  0  0  0  0  0  0  0  0  0
   24.5940   -0.2500    0.0000 O   0  0  0  0  0  0  0  0  0  0  0  0
   20.5273    4.7500    0.0000 O   0  0  0  0  0  0  0  0  0  0  0  0
   23.2594    2.2500    0.0000 O   0  0  0  0  0  0  0  0  0  0  0  0
   22.8619   -0.2500    0.0000 O   0  0  0  0  0  0  0  0  0  0  0  0
   11.0677    9.2500    0.0000 O   0  0  0  0  0  0  0  0  0  0  0  0
   17.7953    6.2500    0.0000 O   0  0  0  0  0  0  0  0  0  0  0  0
   13.7998   11.7500    0.0000 O   0  0  0  0  0  0  0  0  0  0  0  0
   21.9959    9.2500    0.0000 O   0  0  0  0  0  0  0  0  0  0  0  0
   18.6613    4.7500    0.0000 O   0  0  0  0  0  0  0  0  0  0  0  0
   13.7998    8.7500    0.0000 O   0  0  0  0  0  0  0  0  0  0  0  0
   16.5318    9.2500    0.0000 O   0  0  0  0  0  0  0  0  0  0  0  0
   17.7953  -11.7500    0.0000 O   0  0  0  0  0  0  0  0  0  0  0  0
   21.3933    2.2500    0.0000 O   0  0  0  0  0  0  0  0  0  0  0  0
   19.2639   11.7500    0.0000 O   0  0  0  0  0  0  0  0  0  0  0  0
   15.0632   -9.2500    0.0000 O   0  0  0  0  0  0  0  0  0  0  0  0
   25.8574    6.7500    0.0000 O   0  0  0  0  0  0  0  0  0  0  0  0
   12.3312  -11.7500    0.0000 O   0  0  0  0  0  0  0  0  0  0  0  0
    8.3356   11.7500    0.0000 O   0  0  0  0  0  0  0  0  0  0  0  0
   13.9337   13.7500    0.0000 O   0  0  0  0  0  0  0  0  0  0  0  0
    4.7376   10.7500    0.0000 O   0  0  0  0  0  0  0  0  0  0  0  0
    5.6036    9.2500    0.0000 O   0  0  0  0  0  0  0  0  0  0  0  0
    4.7376   11.7500    0.0000 O   0  0  0  0  0  0  0  0  0  0  0  0
    5.1350    3.2500    0.0000 N   0  0  0  0  0  0  0  0  0  0  0  0
    7.3356   -3.7500    0.0000 N   0  0  0  0  0  0  0  0  0  0  0  0
   20.9959   -3.2500    0.0000 N   0  0  0  0  0  0  0  0  0  0  0  0
    7.8671    3.7500    0.0000 N   0  0  0  0  0  0  0  0  0  0  0  0
   10.0677   -3.2500    0.0000 N   0  0  0  0  0  0  0  0  0  0  0  0
   18.2639   -3.7500    0.0000 N   0  0  0  0  0  0  0  0  0  0  0  0
   23.7280   -3.7500    0.0000 N   0  0  0  0  0  0  0  0  0  0  0  0
   13.3312    3.7500    0.0000 N   0  0  0  0  0  0  0  0  0  0  0  0
   16.0632    3.2500    0.0000 N   0  0  0  0  0  0  0  0  0  0  0  0
   10.5991    3.2500    0.0000 N   0  0  0  0  0  0  0  0  0  0  0  0
    4.2690    6.7500    0.0000 N   0  0  0  0  0  0  0  0  0  0  0  0
    3.0055   -2.2500    0.0000 N   0  0  0  0  0  0  0  0  0  0  0  0
   12.7998   -3.7500    0.0000 N   0  0  0  0  0  0  0  0  0  0  0  0
   15.5318   -3.2500    0.0000 N   0  0  0  0  0  0  0  0  0  0  0  0
   21.5273  -10.7500    0.0000 N   0  0  0  0  0  0  0  0  0  0  0  0
   18.7953    3.7500    0.0000 N   0  0  0  0  0  0  0  0  0  0  0  0
    9.7036    0.7555    0.0000 N   0  0  0  0  0  0  0  0  0  0  0  0
   21.5273    3.2500    0.0000 N   0  0  0  0  0  0  0  0  0  0  0  0
   23.7280   10.2500    0.0000 N   0  0  0  0  0  0  0  0  0  0  0  0
   12.7998   10.2500    0.0000 N   0  0  0  0  0  0  0  0  0  0  0  0
   18.7953  -10.2500    0.0000 N   0  0  0  0  0  0  0  0  0  0  0  0
   11.1818    1.4136    0.0000 N   0  0  0  0  0  0  0  0  0  0  0  0
   15.5318   10.7500    0.0000 N   0  0  0  0  0  0  0  0  0  0  0  0
   20.9959   10.7500    0.0000 N   0  0  0  0  0  0  0  0  0  0  0  0
   10.0677   10.7500    0.0000 N   0  0  0  0  0  0  0  0  0  0  0  0
   18.2639   10.2500    0.0000 N   0  0  0  0  0  0  0  0  0  0  0  0
    2.5369    6.7500    0.0000 N   0  0  0  0  0  0  0  0  0  0  0  0
   21.3933  -13.7500    0.0000 N   0  0  0  0  0  0  0  0  0  0  0  0
    3.4030    5.2500    0.0000 N   0  0  0  0  0  0  0  0  0  0  0  0
   24.5940   13.7500    0.0000 N   0  0  0  0  0  0  0  0  0  0  0  0
   16.0632  -10.7500    0.0000 N   0  0  0  0  0  0  0  0  0  0  0  0
   13.3312  -10.2500    0.0000 N   0  0  0  0  0  0  0  0  0  0  0  0
   20.5273    0.7500    0.0000 N   0  0  0  0  0  0  0  0  0  0  0  0
    7.3356   10.2500    0.0000 N   0  0  0  0  0  0  0  0  0  0  0  0
   10.5991  -10.7500    0.0000 N   0  0  0  0  0  0  0  0  0  0  0  0
   22.2594  -15.2500    0.0000 N   0  0  0  0  0  0  0  0  0  0  0  0
   25.4600   15.2500    0.0000 N   0  0  0  0  0  0  0  0  0  0  0  0
   20.5273  -15.2500    0.0000 N   0  0  0  0  0  0  0  0  0  0  0  0
   23.7280   15.2500    0.0000 N   0  0  0  0  0  0  0  0  0  0  0  0
    5.6036   13.2500    0.0000 N   0  0  0  0  0  0  0  0  0  0  0  0
    6.4696   -3.2500    0.0000 C   0  0  0  0  0  0  0  0  0  0  0  0
    6.4696   -2.2500    0.0000 C   0  0  0  0  0  0  0  0  0  0  0  0
    6.0010    3.7500    0.0000 C   0  0  0  0  0  0  0  0  0  0  0  0
    6.0010    4.7500    0.0000 C   0  0  0  0  0  0  0  0  0  0  0  0
   20.1299   -3.7500    0.0000 C   0  0  0  0  0  0  0  0  0  0  0  0
   20.1299   -4.7500    0.0000 C   0  0  0  0  0  0  0  0  0  0  0  0
    5.6036   -1.7500    0.0000 C   0  0  0  0  0  0  0  0  0  0  0  0
   19.2639   -5.2500    0.0000 C   0  0  0  0  0  0  0  0  0  0  0  0
    5.6036   -3.7500    0.0000 C   0  0  0  0  0  0  0  0  0  0  0  0
    5.1350    5.2500    0.0000 C   0  0  0  0  0  0  0  0  0  0  0  0
    4.7376   -2.2500    0.0000 C   0  0  0  0  0  0  0  0  0  0  0  0
    9.2017   -3.7500    0.0000 C   0  0  0  0  0  0  0  0  0  0  0  0
    6.8671    3.2500    0.0000 C   0  0  0  0  0  0  0  0  0  0  0  0
    8.7331    3.2500    0.0000 C   0  0  0  0  0  0  0  0  0  0  0  0
    8.3357   -3.2500    0.0000 C   0  0  0  0  0  0  0  0  0  0  0  0
   14.1972    2.2500    0.0000 C   0  0  0  0  0  0  0  0  0  0  0  0
   14.1972    3.2500    0.0000 C   0  0  0  0  0  0  0  0  0  0  0  0
   22.8619   -3.2500    0.0000 C   0  0  0  0  0  0  0  0  0  0  0  0
   15.0632    1.7500    0.0000 C   0  0  0  0  0  0  0  0  0  0  0  0
   19.2639   -3.2500    0.0000 C   0  0  0  0  0  0  0  0  0  0  0  0
    9.2017   -4.7500    0.0000 C   0  0  0  0  0  0  0  0  0  0  0  0
   19.2639   -6.2500    0.0000 C   0  0  0  0  0  0  0  0  0  0  0  0
   18.3978   -4.7500    0.0000 C   0  0  0  0  0  0  0  0  0  0  0  0
    5.1350    6.2500    0.0000 C   0  0  0  0  0  0  0  0  0  0  0  0
   21.9959   -3.7500    0.0000 C   0  0  0  0  0  0  0  0  0  0  0  0
    8.7331    2.2500    0.0000 C   0  0  0  0  0  0  0  0  0  0  0  0
    3.8716   -1.7500    0.0000 C   0  0  0  0  0  0  0  0  0  0  0  0
   22.8619   -2.2500    0.0000 C   0  0  0  0  0  0  0  0  0  0  0  0
   17.3978   -3.2500    0.0000 C   0  0  0  0  0  0  0  0  0  0  0  0
    9.5991    3.7500    0.0000 C   0  0  0  0  0  0  0  0  0  0  0  0
   15.0632    3.7500    0.0000 C   0  0  0  0  0  0  0  0  0  0  0  0
    8.3356   -5.2500    0.0000 C   0  0  0  0  0  0  0  0  0  0  0  0
   15.0632    0.7500    0.0000 C   0  0  0  0  0  0  0  0  0  0  0  0
   15.9292    2.2500    0.0000 C   0  0  0  0  0  0  0  0  0  0  0  0
   16.9292    3.7500    0.0000 C   0  0  0  0  0  0  0  0  0  0  0  0
   11.9337   -3.2500    0.0000 C   0  0  0  0  0  0  0  0  0  0  0  0
   23.7280   -1.7500    0.0000 C   0  0  0  0  0  0  0  0  0  0  0  0
   11.0677   -3.7500    0.0000 C   0  0  0  0  0  0  0  0  0  0  0  0
    9.5991    1.7500    0.0000 C   0  0  0  0  0  0  0  0  0  0  0  0
   22.3933  -10.2500    0.0000 C   0  0  0  0  0  0  0  0  0  0  0  0
   11.4651    3.7500    0.0000 C   0  0  0  0  0  0  0  0  0  0  0  0
   23.2594  -10.7500    0.0000 C   0  0  0  0  0  0  0  0  0  0  0  0
   12.3312    3.2500    0.0000 C   0  0  0  0  0  0  0  0  0  0  0  0
   16.5318   -3.7500    0.0000 C   0  0  0  0  0  0  0  0  0  0  0  0
   14.6658   -3.7500    0.0000 C   0  0  0  0  0  0  0  0  0  0  0  0
   11.9337   11.7500    0.0000 C   0  0  0  0  0  0  0  0  0  0  0  0
   17.3978   -2.2500    0.0000 C   0  0  0  0  0  0  0  0  0  0  0  0
   11.0677   12.2500    0.0000 C   0  0  0  0  0  0  0  0  0  0  0  0
   11.9337   10.7500    0.0000 C   0  0  0  0  0  0  0  0  0  0  0  0
   19.6613    3.2500    0.0000 C   0  0  0  0  0  0  0  0  0  0  0  0
   19.6613  -10.7500    0.0000 C   0  0  0  0  0  0  0  0  0  0  0  0
   16.9292    4.7500    0.0000 C   0  0  0  0  0  0  0  0  0  0  0  0
   22.3933    3.7500    0.0000 C   0  0  0  0  0  0  0  0  0  0  0  0
   17.7953    3.2500    0.0000 C   0  0  0  0  0  0  0  0  0  0  0  0
   22.8619   10.7500    0.0000 C   0  0  0  0  0  0  0  0  0  0  0  0
   19.6613  -11.7500    0.0000 C   0  0  0  0  0  0  0  0  0  0  0  0
   13.7998   -3.2500    0.0000 C   0  0  0  0  0  0  0  0  0  0  0  0
   11.9337   -2.2500    0.0000 C   0  0  0  0  0  0  0  0  0  0  0  0
   22.3933   -9.2500    0.0000 C   0  0  0  0  0  0  0  0  0  0  0  0
   20.5273  -10.2500    0.0000 C   0  0  0  0  0  0  0  0  0  0  0  0
   22.8619   11.7500    0.0000 C   0  0  0  0  0  0  0  0  0  0  0  0
   22.3933    4.7500    0.0000 C   0  0  0  0  0  0  0  0  0  0  0  0
   20.5273    3.7500    0.0000 C   0  0  0  0  0  0  0  0  0  0  0  0
   10.5127    2.1567    0.0000 C   0  0  0  0  0  0  0  0  0  0  0  0
   20.5273  -12.2500    0.0000 C   0  0  0  0  0  0  0  0  0  0  0  0
   19.6613    2.2500    0.0000 C   0  0  0  0  0  0  0  0  0  0  0  0
   23.2594    3.2500    0.0000 C   0  0  0  0  0  0  0  0  0  0  0  0
   23.7280   -0.7500    0.0000 C   0  0  0  0  0  0  0  0  0  0  0  0
   14.6658   -4.7500    0.0000 C   0  0  0  0  0  0  0  0  0  0  0  0
   23.7280   12.2500    0.0000 C   0  0  0  0  0  0  0  0  0  0  0  0
    3.4030    6.2500    0.0000 C   0  0  0  0  0  0  0  0  0  0  0  0
   11.0677   13.2500    0.0000 C   0  0  0  0  0  0  0  0  0  0  0  0
   10.2017   11.7500    0.0000 C   0  0  0  0  0  0  0  0  0  0  0  0
   11.0677   10.2500    0.0000 C   0  0  0  0  0  0  0  0  0  0  0  0
   14.6658   10.2500    0.0000 C   0  0  0  0  0  0  0  0  0  0  0  0
   13.7998   10.7500    0.0000 C   0  0  0  0  0  0  0  0  0  0  0  0
   21.9959   10.2500    0.0000 C   0  0  0  0  0  0  0  0  0  0  0  0
   10.6818    0.5476    0.0000 C   0  0  0  0  0  0  0  0  0  0  0  0
   23.2594    5.2500    0.0000 C   0  0  0  0  0  0  0  0  0  0  0  0
   20.5273  -13.2500    0.0000 C   0  0  0  0  0  0  0  0  0  0  0  0
   17.7953    5.2500    0.0000 C   0  0  0  0  0  0  0  0  0  0  0  0
   17.3978   10.7500    0.0000 C   0  0  0  0  0  0  0  0  0  0  0  0
   23.7280   13.2500    0.0000 C   0  0  0  0  0  0  0  0  0  0  0  0
    7.4696   -6.7500    0.0000 C   0  0  0  0  0  0  0  0  0  0  0  0
   17.3978   11.7500    0.0000 C   0  0  0  0  0  0  0  0  0  0  0  0
   16.5318   10.2500    0.0000 C   0  0  0  0  0  0  0  0  0  0  0  0
   17.7953  -10.7500    0.0000 C   0  0  0  0  0  0  0  0  0  0  0  0
   14.6658    9.2500    0.0000 C   0  0  0  0  0  0  0  0  0  0  0  0
   20.5273    1.7500    0.0000 C   0  0  0  0  0  0  0  0  0  0  0  0
   20.1299   10.2500    0.0000 C   0  0  0  0  0  0  0  0  0  0  0  0
   16.9292  -10.2500    0.0000 C   0  0  0  0  0  0  0  0  0  0  0  0
   23.2594    6.2500    0.0000 C   0  0  0  0  0  0  0  0  0  0  0  0
   24.1254    4.7500    0.0000 C   0  0  0  0  0  0  0  0  0  0  0  0
   19.2639   10.7500    0.0000 C   0  0  0  0  0  0  0  0  0  0  0  0
   14.1972  -10.7500    0.0000 C   0  0  0  0  0  0  0  0  0  0  0  0
    9.2017   10.2500    0.0000 C   0  0  0  0  0  0  0  0  0  0  0  0
   16.5318   12.2500    0.0000 C   0  0  0  0  0  0  0  0  0  0  0  0
   11.4651  -10.2500    0.0000 C   0  0  0  0  0  0  0  0  0  0  0  0
   11.4651   -9.2500    0.0000 C   0  0  0  0  0  0  0  0  0  0  0  0
   14.1972  -11.7500    0.0000 C   0  0  0  0  0  0  0  0  0  0  0  0
   15.0632  -10.2500    0.0000 C   0  0  0  0  0  0  0  0  0  0  0  0
   24.1254    6.7500    0.0000 C   0  0  0  0  0  0  0  0  0  0  0  0
   24.9914    5.2500    0.0000 C   0  0  0  0  0  0  0  0  0  0  0  0
   12.3312  -10.7500    0.0000 C   0  0  0  0  0  0  0  0  0  0  0  0
   24.9914    6.2500    0.0000 C   0  0  0  0  0  0  0  0  0  0  0  0
    8.3357   10.7500    0.0000 C   0  0  0  0  0  0  0  0  0  0  0  0
   16.5318   13.2500    0.0000 C   0  0  0  0  0  0  0  0  0  0  0  0
   15.6658   11.7500    0.0000 C   0  0  0  0  0  0  0  0  0  0  0  0
   15.0632  -12.2500    0.0000 C   0  0  0  0  0  0  0  0  0  0  0  0
   21.3933  -14.7500    0.0000 C   0  0  0  0  0  0  0  0  0  0  0  0
   10.5991   -8.7500    0.0000 C   0  0  0  0  0  0  0  0  0  0  0  0
   12.3312   -8.7500    0.0000 C   0  0  0  0  0  0  0  0  0  0  0  0
   24.5940   14.7500    0.0000 C   0  0  0  0  0  0  0  0  0  0  0  0
    6.4696   10.7500    0.0000 C   0  0  0  0  0  0  0  0  0  0  0  0
   15.6658   13.7500    0.0000 C   0  0  0  0  0  0  0  0  0  0  0  0
   14.7998   12.2500    0.0000 C   0  0  0  0  0  0  0  0  0  0  0  0
   14.7998   13.2500    0.0000 C   0  0  0  0  0  0  0  0  0  0  0  0
   15.0632  -13.2500    0.0000 C   0  0  0  0  0  0  0  0  0  0  0  0
   15.9292  -11.7500    0.0000 C   0  0  0  0  0  0  0  0  0  0  0  0
    6.4696   11.7500    0.0000 C   0  0  0  0  0  0  0  0  0  0  0  0
   15.9292  -13.7500    0.0000 C   0  0  0  0  0  0  0  0  0  0  0  0
   16.7953  -12.2500    0.0000 C   0  0  0  0  0  0  0  0  0  0  0  0
    5.6036   10.2500    0.0000 C   0  0  0  0  0  0  0  0  0  0  0  0
   16.7953  -13.2500    0.0000 C   0  0  0  0  0  0  0  0  0  0  0  0
    5.6036   12.2500    0.0000 C   0  0  0  0  0  0  0  0  0  0  0  0
    2.8660    4.9400    0.0000 H   0  0  0  0  0  0  0  0  0  0  0  0
   20.5273  -15.8700    0.0000 H   0  0  0  0  0  0  0  0  0  0  0  0
   23.7280   15.8700    0.0000 H   0  0  0  0  0  0  0  0  0  0  0  0
  1110  1  0
  1162  1  0
  2137  1  0
  3 87  2  0
  4 91  2  0
  5 93  2  0
  6 98  2  0
  7103  2  0
  8109  2  0
  9108  2  0
 10116  2  0
 11120  2  0
 12121  2  0
 13122  2  0
 14132  2  0
 15135  2  0
 16138  2  0
 17146  1  0
 18141  2  0
 19145  2  0
 20146  2  0
 21152  2  0
 22159  1  0
 23154  2  0
 24155  2  0
 25159  2  0
 26166  1  0
 27164  2  0
 28165  2  0
 29167  2  0
 30172  2  0
 31179  2  0
 32183  1  0
 33182  2  0
 34184  2  0
 35195  1  0
 36201  1  0
 37201  2  0
 38203  2  0
 81 39  1  0
 39 87  1  0
 79 40  1  0
 40 93  1  0
 83 41  1  0
 41103  1  0
 42 91  1  0
 92 42  1  0
 90 43  1  0
 43116  1  0
 44 98  1  0
107 44  1  0
 96 45  1  0
 45120  1  0
 95 46  1  0
 46121  1  0
 47109  1  0
113 47  1  0
 48108  1  0
 48119  1  0
 49102  1  0
 49149  1  0
 50105  1  0
114 51  1  0
 51135  1  0
 52122  1  0
123 52  1  0
118 53  1  0
 53138  1  0
128 54  1  0
 54132  1  0
 55117  1  0
 55156  1  0
131 56  1  0
 56141  1  0
133 57  1  0
 57145  1  0
127 58  1  0
 58154  1  0
129 59  1  0
 59165  1  0
 60142  1  0
 60156  2  0
153 61  1  0
 61164  1  0
 62155  1  0
 62168  1  0
 63152  1  0
 63174  1  0
160 64  1  0
 64172  1  0
 65149  1  0
 66158  1  0
 66188  1  0
 67149  2  0
 67204  1  0
 68161  1  0
 68191  1  0
 69169  1  0
 69179  1  0
173 70  1  0
 70182  1  0
 71167  1  0
 72184  1  0
192 72  1  0
176 73  1  1
 74188  1  0
 75191  1  0
 76188  2  0
 76205  1  0
 77191  2  0
 77206  1  0
 78203  1  0
 79 80  1  6
 79 87  1  0
 80 85  1  0
 81 82  1  1
 81 91  1  0
 82 88  1  0
 83 84  1  1
 83 98  1  0
 84 86  1  0
 85 89  1  0
 86100  1  0
 86101  1  0
 88102  1  0
 89105  1  0
 90 93  1  0
 90 99  1  1
 92104  1  6
 92108  1  0
 95 94  1  6
 94 97  1  0
 95109  1  0
 96103  1  0
 96106  1  6
 97111  1  0
 97112  1  0
 99110  1  0
104117  1  0
106115  1  0
107122  1  0
107125  1  6
113130  1  1
113132  1  0
114116  1  0
114136  1  6
115146  1  0
117142  2  0
118120  1  0
118137  1  1
119121  1  0
123135  1  0
123147  1  1
124126  1  0
127124  1  6
126150  1  0
126151  1  0
127152  1  0
128141  1  0
128144  1  6
129134  1  6
129138  1  0
130159  1  0
131140  1  1
131145  1  0
133139  1  6
133155  1  0
134143  1  0
139148  1  0
140157  1  0
143158  1  0
144167  1  0
148161  1  0
153154  1  0
153166  1  1
157170  2  0
157171  1  0
160163  1  6
160164  1  0
163175  1  0
165169  1  0
168172  1  0
170180  1  0
171181  2  0
173178  1  6
173179  1  0
174184  1  0
175185  2  0
175186  1  0
176177  1  0
176182  1  0
177189  1  0
177190  1  0
178187  1  0
180183  2  0
181183  1  0
185193  1  0
186194  2  0
187196  2  0
187197  1  0
192198  1  6
192201  1  0
193195  2  0
194195  1  0
196199  1  0
197200  2  0
198203  1  0
199202  2  0
200202  1  0
M  END
