 
     RDKit          2D

 22 25  0  0  1  0  0  0  0  0999 V2000
   17.0100  -19.6000    0.0000 C   0  0  0  0  0  0  0  0  0  0  0  0
   17.0100  -21.0000    0.0000 C   0  0  0  0  0  0  0  0  0  0  0  0
   18.2000  -21.7000    0.0000 C   0  0  0  0  0  0  0  0  0  0  0  0
   18.2000  -18.9700    0.0000 C   0  0  0  0  0  0  0  0  0  0  0  0
   19.3900  -19.6000    0.0000 C   0  0  0  0  0  0  0  0  0  0  0  0
   19.3900  -21.0000    0.0000 C   0  0  0  0  0  0  0  0  0  0  0  0
   20.5800  -21.7000    0.0000 C   0  0  0  0  0  0  0  0  0  0  0  0
   21.7700  -21.0000    0.0000 C   0  0  0  0  0  0  0  0  0  0  0  0
   20.5800  -18.9700    0.0000 C   0  0  0  0  0  0  0  0  0  0  0  0
   21.7700  -19.6700    0.0000 C   0  0  0  0  0  0  0  0  0  0  0  0
   21.7700  -16.8700    0.0000 C   0  0  0  0  0  0  0  0  0  0  0  0
   20.5800  -17.5700    0.0000 C   0  0  0  0  0  0  0  0  0  0  0  0
   22.9600  -17.5700    0.0000 C   0  0  0  0  0  0  0  0  0  0  0  0
   22.9600  -18.9700    0.0000 C   0  0  0  0  0  0  0  0  0  0  0  0
   25.3400  -18.9700    0.0000 C   0  0  0  0  0  0  0  0  0  0  0  0
   25.3400  -17.6400    0.0000 C   0  0  0  0  0  0  0  0  0  0  0  0
   24.1500  -16.9400    0.0000 C   0  0  0  0  0  0  0  0  0  0  0  0
   19.3900  -18.2700    0.0000 C   0  0  0  0  0  0  0  0  0  0  0  0
   22.9600  -16.2400    0.0000 C   0  0  0  0  0  0  0  0  0  0  0  0
   24.1500  -15.5400    0.0000 O   0  0  0  0  0  0  0  0  0  0  0  0
   15.8200  -21.7000    0.0000 O   0  0  0  0  0  0  0  0  0  0  0  0
   18.2000  -17.5700    0.0000 C   0  0  0  0  0  0  0  0  0  0  0  0
 15 16  1  0
 16 17  1  0
 17 13  1  0
 14 15  1  1
 10  8  1  6
  5 18  1  1
  9  5  1  0
 13 19  1  1
  5  4  1  0
 17 20  1  1
  4  1  2  0
  1  2  1  0
  9 10  1  0
  2 21  2  0
 10 14  1  0
  4 22  1  0
 13 11  1  0
 11 12  1  0
  9 12  1  1
  2  3  1  0
  6  3  1  1
  5  6  1  0
  6  7  1  0
  7  8  1  0
 13 14  1  0
M  END
