933024-96-5.mol
     RDKit          2D

376400  0  0  1  0  0  0  0  0999 V2000
   -4.0805    0.1896    0.0000 S   0  0  0  0  0  0  0  0  0  0  0  0
    6.5415    1.2218    0.0000 S   0  0  0  0  0  0  0  0  0  0  0  0
   -6.8216    3.8992    0.0000 S   0  0  0  0  0  0  0  0  0  0  0  0
    2.9182    0.3304    0.0000 S   0  0  0  0  0  0  0  0  0  0  0  0
   -5.8989    8.4184    0.0000 S   0  0  0  0  0  0  0  0  0  0  0  0
    0.5104   -0.2557    0.0000 S   0  0  0  0  0  0  0  0  0  0  0  0
   -6.2301   10.8743    0.0000 S   0  0  0  0  0  0  0  0  0  0  0  0
   -7.9310   13.8849    0.0000 S   0  0  0  0  0  0  0  0  0  0  0  0
    7.1521   -1.5632    0.0000 S   0  0  0  0  0  0  0  0  0  0  0  0
  -11.6522   13.0220    0.0000 S   0  0  0  0  0  0  0  0  0  0  0  0
    8.9345   -4.5284    0.0000 S   0  0  0  0  0  0  0  0  0  0  0  0
   15.0537   -7.1498    0.0000 S   0  0  0  0  0  0  0  0  0  0  0  0
  -15.2755   12.1307    0.0000 S   0  0  0  0  0  0  0  0  0  0  0  0
   12.3307   -5.1879    0.0000 S   0  0  0  0  0  0  0  0  0  0  0  0
   15.4176  -10.4862    0.0000 S   0  0  0  0  0  0  0  0  0  0  0  0
  -17.6833   11.5446    0.0000 S   0  0  0  0  0  0  0  0  0  0  0  0
   17.2000  -13.4514    0.0000 S   0  0  0  0  0  0  0  0  0  0  0  0
   -3.9076    0.9963    0.0000 P   0  0  0  0  0  0  0  0  0  0  0  0
    7.0253    0.5535    0.0000 P   0  0  0  0  0  0  0  0  0  0  0  0
   -6.1063    4.3104    0.0000 P   0  0  0  0  0  0  0  0  0  0  0  0
    3.0911    1.1371    0.0000 P   0  0  0  0  0  0  0  0  0  0  0  0
   -5.1147    8.1621    0.0000 P   0  0  0  0  0  0  0  0  0  0  0  0
    0.0266    0.4127    0.0000 P   0  0  0  0  0  0  0  0  0  0  0  0
   -5.5149   11.2856    0.0000 P   0  0  0  0  0  0  0  0  0  0  0  0
   -8.1039   13.0782    0.0000 P   0  0  0  0  0  0  0  0  0  0  0  0
    7.7642   -2.1163    0.0000 P   0  0  0  0  0  0  0  0  0  0  0  0
  -11.1684   12.3538    0.0000 P   0  0  0  0  0  0  0  0  0  0  0  0
    9.7552   -4.4436    0.0000 P   0  0  0  0  0  0  0  0  0  0  0  0
   15.8743   -7.0650    0.0000 P   0  0  0  0  0  0  0  0  0  0  0  0
  -15.1026   12.9374    0.0000 P   0  0  0  0  0  0  0  0  0  0  0  0
   12.8168   -4.5213    0.0000 P   0  0  0  0  0  0  0  0  0  0  0  0
   16.0297  -11.0392    0.0000 P   0  0  0  0  0  0  0  0  0  0  0  0
  -18.1671   12.2128    0.0000 P   0  0  0  0  0  0  0  0  0  0  0  0
   18.0206  -13.3666    0.0000 P   0  0  0  0  0  0  0  0  0  0  0  0
    4.9342   -0.9022    0.0000 O   0  0  0  0  0  0  0  0  0  0  0  0
   -2.0645   -1.0431    0.0000 O   0  0  0  0  0  0  0  0  0  0  0  0
   -7.3355    6.5423    0.0000 O   0  0  0  0  0  0  0  0  0  0  0  0
    9.4372   -0.1945    0.0000 O   0  0  0  0  0  0  0  0  0  0  0  0
   -6.3887    1.5762    0.0000 O   0  0  0  0  0  0  0  0  0  0  0  0
   -5.5868   14.1829    0.0000 O   0  0  0  0  0  0  0  0  0  0  0  0
    0.8899    3.0223    0.0000 O   0  0  0  0  0  0  0  0  0  0  0  0
   -3.0097   10.1542    0.0000 O   0  0  0  0  0  0  0  0  0  0  0  0
   -3.1009    0.8234    0.0000 O   0  0  0  0  0  0  0  0  0  0  0  0
    3.8978    0.9642    0.0000 O   0  0  0  0  0  0  0  0  0  0  0  0
   -5.3710    7.3779    0.0000 O   0  0  0  0  0  0  0  0  0  0  0  0
    7.6936    1.0373    0.0000 O   0  0  0  0  0  0  0  0  0  0  0  0
   -5.6951    3.5953    0.0000 O   0  0  0  0  0  0  0  0  0  0  0  0
    8.2475   -4.5949    0.0000 O   0  0  0  0  0  0  0  0  0  0  0  0
  -10.3051   14.9634    0.0000 O   0  0  0  0  0  0  0  0  0  0  0  0
   -7.2972   12.9053    0.0000 O   0  0  0  0  0  0  0  0  0  0  0  0
    0.6949    0.8964    0.0000 O   0  0  0  0  0  0  0  0  0  0  0  0
   -5.1036   10.5704    0.0000 O   0  0  0  0  0  0  0  0  0  0  0  0
   17.7027   -9.1175    0.0000 O   0  0  0  0  0  0  0  0  0  0  0  0
  -17.3038   14.8226    0.0000 O   0  0  0  0  0  0  0  0  0  0  0  0
  -13.2596   10.8980    0.0000 O   0  0  0  0  0  0  0  0  0  0  0  0
    6.3571    0.0697    0.0000 O   0  0  0  0  0  0  0  0  0  0  0  0
   11.9205   -5.7429    0.0000 O   0  0  0  0  0  0  0  0  0  0  0  0
   -6.5176    5.0256    0.0000 O   0  0  0  0  0  0  0  0  0  0  0  0
   15.5656   -4.5359    0.0000 O   0  0  0  0  0  0  0  0  0  0  0  0
   -4.7143    1.1692    0.0000 O   0  0  0  0  0  0  0  0  0  0  0  0
   -0.6417   -0.0711    0.0000 O   0  0  0  0  0  0  0  0  0  0  0  0
    7.2111   -2.7284    0.0000 O   0  0  0  0  0  0  0  0  0  0  0  0
    2.2844    1.3101    0.0000 O   0  0  0  0  0  0  0  0  0  0  0  0
    8.3173   -1.5041    0.0000 O   0  0  0  0  0  0  0  0  0  0  0  0
  -10.5001   12.8375    0.0000 O   0  0  0  0  0  0  0  0  0  0  0  0
   -4.8584    8.9463    0.0000 O   0  0  0  0  0  0  0  0  0  0  0  0
   -5.9262   12.0008    0.0000 O   0  0  0  0  0  0  0  0  0  0  0  0
   15.9591   -7.8857    0.0000 O   0  0  0  0  0  0  0  0  0  0  0  0
    9.8400   -5.2642    0.0000 O   0  0  0  0  0  0  0  0  0  0  0  0
  -14.2959   12.7645    0.0000 O   0  0  0  0  0  0  0  0  0  0  0  0
   13.4835   -5.0074    0.0000 O   0  0  0  0  0  0  0  0  0  0  0  0
   16.5130  -13.5179    0.0000 O   0  0  0  0  0  0  0  0  0  0  0  0
   -8.9105   13.2511    0.0000 O   0  0  0  0  0  0  0  0  0  0  0  0
  -17.4988   12.6966    0.0000 O   0  0  0  0  0  0  0  0  0  0  0  0
    9.6704   -3.6229    0.0000 O   0  0  0  0  0  0  0  0  0  0  0  0
   15.4766  -11.6514    0.0000 O   0  0  0  0  0  0  0  0  0  0  0  0
  -11.8367   11.8700    0.0000 O   0  0  0  0  0  0  0  0  0  0  0  0
  -15.9093   13.1103    0.0000 O   0  0  0  0  0  0  0  0  0  0  0  0
   15.7895   -6.2444    0.0000 O   0  0  0  0  0  0  0  0  0  0  0  0
   12.1502   -4.0352    0.0000 O   0  0  0  0  0  0  0  0  0  0  0  0
   16.5828  -10.4271    0.0000 O   0  0  0  0  0  0  0  0  0  0  0  0
   20.1860  -14.6659    0.0000 O   0  0  0  0  0  0  0  0  0  0  0  0
  -19.4203    9.5997    0.0000 O   0  0  0  0  0  0  0  0  0  0  0  0
   17.9358  -12.5459    0.0000 O   0  0  0  0  0  0  0  0  0  0  0  0
   -3.7346    1.8029    0.0000 O   0  0  0  0  0  0  0  0  0  0  0  0
    7.5091   -0.1148    0.0000 O   0  0  0  0  0  0  0  0  0  0  0  0
   -5.3912    4.7218    0.0000 O   0  0  0  0  0  0  0  0  0  0  0  0
    3.2640    1.9438    0.0000 O   0  0  0  0  0  0  0  0  0  0  0  0
   18.1054  -14.1872    0.0000 O   0  0  0  0  0  0  0  0  0  0  0  0
   -4.3305    7.9058    0.0000 O   0  0  0  0  0  0  0  0  0  0  0  0
   -0.4571    1.0809    0.0000 O   0  0  0  0  0  0  0  0  0  0  0  0
  -18.8354   11.7291    0.0000 O   0  0  0  0  0  0  0  0  0  0  0  0
   -4.7997   11.6969    0.0000 O   0  0  0  0  0  0  0  0  0  0  0  0
   -8.2768   12.2715    0.0000 O   0  0  0  0  0  0  0  0  0  0  0  0
    8.3764   -2.6694    0.0000 O   0  0  0  0  0  0  0  0  0  0  0  0
  -10.6846   11.6854    0.0000 O   0  0  0  0  0  0  0  0  0  0  0  0
   -7.2777    0.3492    0.0000 O   0  0  0  0  0  0  0  0  0  0  0  0
   10.5758   -4.3588    0.0000 O   0  0  0  0  0  0  0  0  0  0  0  0
   16.6950   -6.9802    0.0000 O   0  0  0  0  0  0  0  0  0  0  0  0
  -14.9297   13.7440    0.0000 O   0  0  0  0  0  0  0  0  0  0  0  0
   13.3030   -3.8547    0.0000 O   0  0  0  0  0  0  0  0  0  0  0  0
  -20.4567   11.4660    0.0000 O   0  0  0  0  0  0  0  0  0  0  0  0
   16.6419  -11.5923    0.0000 O   0  0  0  0  0  0  0  0  0  0  0  0
   -1.5454    2.5973    0.0000 O   0  0  0  0  0  0  0  0  0  0  0  0
   -3.1779   12.6206    0.0000 O   0  0  0  0  0  0  0  0  0  0  0  0
  -18.6509   12.8812    0.0000 O   0  0  0  0  0  0  0  0  0  0  0  0
   19.1416   -9.5926    0.0000 O   0  0  0  0  0  0  0  0  0  0  0  0
    5.8479   -5.1887    0.0000 O   0  0  0  0  0  0  0  0  0  0  0  0
  -12.7404   14.5383    0.0000 O   0  0  0  0  0  0  0  0  0  0  0  0
   20.4157  -12.9582    0.0000 O   0  0  0  0  0  0  0  0  0  0  0  0
  -10.1195    0.6529    0.0000 O   0  0  0  0  0  0  0  0  0  0  0  0
  -12.9427    9.4163    0.0000 O   0  0  0  0  0  0  0  0  0  0  0  0
   10.7561   -7.9236    0.0000 O   0  0  0  0  0  0  0  0  0  0  0  0
   16.8814   -3.7845    0.0000 O   0  0  0  0  0  0  0  0  0  0  0  0
    2.3977   -4.2540    0.0000 O   0  0  0  0  0  0  0  0  0  0  0  0
   -4.6011   -4.3948    0.0000 O   0  0  0  0  0  0  0  0  0  0  0  0
  -10.4038    9.4154    0.0000 O   0  0  0  0  0  0  0  0  0  0  0  0
   18.8413  -13.2817    0.0000 O   0  0  0  0  0  0  0  0  0  0  0  0
   -6.5266   18.2798    0.0000 O   0  0  0  0  0  0  0  0  0  0  0  0
   14.1133  -14.1117    0.0000 O   0  0  0  0  0  0  0  0  0  0  0  0
   21.2687   -7.6839    0.0000 O   0  0  0  0  0  0  0  0  0  0  0  0
   19.0215  -16.8466    0.0000 O   0  0  0  0  0  0  0  0  0  0  0  0
  -19.1035    8.1179    0.0000 O   0  0  0  0  0  0  0  0  0  0  0  0
   21.4941  -18.2798    0.0000 O   0  0  0  0  0  0  0  0  0  0  0  0
  -21.2306    6.2092    0.0000 O   0  0  0  0  0  0  0  0  0  0  0  0
    3.8928   -1.9400    0.0000 N   0  0  0  0  0  0  0  0  0  0  0  0
   -3.1059   -2.0809    0.0000 N   0  0  0  0  0  0  0  0  0  0  0  0
   -8.2587    7.6865    0.0000 N   0  0  0  0  0  0  0  0  0  0  0  0
   10.5814    0.7287    0.0000 N   0  0  0  0  0  0  0  0  0  0  0  0
   -7.8567    1.6557    0.0000 N   0  0  0  0  0  0  0  0  0  0  0  0
   -6.1113   15.5563    0.0000 N   0  0  0  0  0  0  0  0  0  0  0  0
   -0.4817    3.5516    0.0000 N   0  0  0  0  0  0  0  0  0  0  0  0
   -2.3400   11.4631    0.0000 N   0  0  0  0  0  0  0  0  0  0  0  0
    7.2061   -5.6326    0.0000 N   0  0  0  0  0  0  0  0  0  0  0  0
  -11.6767   15.4927    0.0000 N   0  0  0  0  0  0  0  0  0  0  0  0
  -18.6755   15.3518    0.0000 N   0  0  0  0  0  0  0  0  0  0  0  0
   18.8469   -8.1943    0.0000 N   0  0  0  0  0  0  0  0  0  0  0  0
  -14.3009    9.8602    0.0000 N   0  0  0  0  0  0  0  0  0  0  0  0
   11.9949   -7.2112    0.0000 N   0  0  0  0  0  0  0  0  0  0  0  0
   15.6451   -3.0679    0.0000 N   0  0  0  0  0  0  0  0  0  0  0  0
   15.4716  -14.5557    0.0000 N   0  0  0  0  0  0  0  0  0  0  0  0
    3.8928   -3.2678    0.0000 N   0  0  0  0  0  0  0  0  0  0  0  0
   -3.1059   -3.4087    0.0000 N   0  0  0  0  0  0  0  0  0  0  0  0
   -9.5794    7.8253    0.0000 N   0  0  0  0  0  0  0  0  0  0  0  0
   11.7314    1.3926    0.0000 N   0  0  0  0  0  0  0  0  0  0  0  0
   -5.5670   16.7676    0.0000 N   0  0  0  0  0  0  0  0  0  0  0  0
   -8.6987    0.5011    0.0000 N   0  0  0  0  0  0  0  0  0  0  0  0
    2.3977   -1.7789    0.0000 N   0  0  0  0  0  0  0  0  0  0  0  0
   -4.6011   -1.9198    0.0000 N   0  0  0  0  0  0  0  0  0  0  0  0
   -7.9423    9.1566    0.0000 N   0  0  0  0  0  0  0  0  0  0  0  0
   11.1895   -0.6467    0.0000 N   0  0  0  0  0  0  0  0  0  0  0  0
   -7.5411   16.0222    0.0000 N   0  0  0  0  0  0  0  0  0  0  0  0
   20.2603  -16.1343    0.0000 N   0  0  0  0  0  0  0  0  0  0  0  0
  -20.4617    8.5619    0.0000 N   0  0  0  0  0  0  0  0  0  0  0  0
  -19.2114   16.5668    0.0000 N   0  0  0  0  0  0  0  0  0  0  0  0
   20.2052   -8.6382    0.0000 N   0  0  0  0  0  0  0  0  0  0  0  0
   -1.8401    3.9955    0.0000 N   0  0  0  0  0  0  0  0  0  0  0  0
    1.6831   -3.0165    0.0000 N   0  0  0  0  0  0  0  0  0  0  0  0
   -5.3156   -3.1573    0.0000 N   0  0  0  0  0  0  0  0  0  0  0  0
   -1.7566   12.7675    0.0000 N   0  0  0  0  0  0  0  0  0  0  0  0
   -9.0984    9.9965    0.0000 N   0  0  0  0  0  0  0  0  0  0  0  0
   -7.6856   17.4439    0.0000 N   0  0  0  0  0  0  0  0  0  0  0  0
    6.1426   -6.5870    0.0000 N   0  0  0  0  0  0  0  0  0  0  0  0
  -19.9785   14.6010    0.0000 N   0  0  0  0  0  0  0  0  0  0  0  0
  -13.0351   15.9366    0.0000 N   0  0  0  0  0  0  0  0  0  0  0  0
  -14.0062    8.4620    0.0000 N   0  0  0  0  0  0  0  0  0  0  0  0
   12.6184   -0.6467    0.0000 N   0  0  0  0  0  0  0  0  0  0  0  0
   11.9924   -8.6402    0.0000 N   0  0  0  0  0  0  0  0  0  0  0  0
   16.8839   -2.3554    0.0000 N   0  0  0  0  0  0  0  0  0  0  0  0
   13.3329    0.5909    0.0000 N   0  0  0  0  0  0  0  0  0  0  0  0
   14.4080  -15.5100    0.0000 N   0  0  0  0  0  0  0  0  0  0  0  0
    0.9687   -1.7789    0.0000 N   0  0  0  0  0  0  0  0  0  0  0  0
   -6.0300   -1.9198    0.0000 N   0  0  0  0  0  0  0  0  0  0  0  0
   -7.7929   10.5777    0.0000 N   0  0  0  0  0  0  0  0  0  0  0  0
  -21.1316   15.4450    0.0000 N   0  0  0  0  0  0  0  0  0  0  0  0
   -2.1348    5.3938    0.0000 N   0  0  0  0  0  0  0  0  0  0  0  0
   -8.8445   16.6080    0.0000 N   0  0  0  0  0  0  0  0  0  0  0  0
   -0.3351   12.9144    0.0000 N   0  0  0  0  0  0  0  0  0  0  0  0
   20.2578  -17.5632    0.0000 N   0  0  0  0  0  0  0  0  0  0  0  0
  -20.1670    7.1635    0.0000 N   0  0  0  0  0  0  0  0  0  0  0  0
    6.4372   -7.9853    0.0000 N   0  0  0  0  0  0  0  0  0  0  0  0
  -13.3297   17.3348    0.0000 N   0  0  0  0  0  0  0  0  0  0  0  0
  -20.9773   16.8656    0.0000 N   0  0  0  0  0  0  0  0  0  0  0  0
  -15.0698    7.5076    0.0000 N   0  0  0  0  0  0  0  0  0  0  0  0
   13.2287   -9.3569    0.0000 N   0  0  0  0  0  0  0  0  0  0  0  0
   16.8864   -0.9265    0.0000 N   0  0  0  0  0  0  0  0  0  0  0  0
   14.7027  -16.9082    0.0000 N   0  0  0  0  0  0  0  0  0  0  0  0
    4.1514    0.1791    0.0000 C   0  0  0  0  0  0  0  0  0  0  0  0
   -2.8473    0.0383    0.0000 C   0  0  0  0  0  0  0  0  0  0  0  0
   -6.1783    7.2077    0.0000 C   0  0  0  0  0  0  0  0  0  0  0  0
    4.9356   -0.0772    0.0000 C   0  0  0  0  0  0  0  0  0  0  0  0
   -2.0631   -0.2180    0.0000 C   0  0  0  0  0  0  0  0  0  0  0  0
   -6.5151    6.4547    0.0000 C   0  0  0  0  0  0  0  0  0  0  0  0
    8.4468    0.7004    0.0000 C   0  0  0  0  0  0  0  0  0  0  0  0
   -6.1088    2.8815    0.0000 C   0  0  0  0  0  0  0  0  0  0  0  0
    3.6653   -0.4875    0.0000 C   0  0  0  0  0  0  0  0  0  0  0  0
   -3.3334   -0.6283    0.0000 C   0  0  0  0  0  0  0  0  0  0  0  0
   -5.7746    2.1272    0.0000 C   0  0  0  0  0  0  0  0  0  0  0  0
    8.6169   -0.1069    0.0000 C   0  0  0  0  0  0  0  0  0  0  0  0
   -6.7905    7.7608    0.0000 C   0  0  0  0  0  0  0  0  0  0  0  0
    4.1491   -1.1558    0.0000 C   0  0  0  0  0  0  0  0  0  0  0  0
   -2.8496   -1.2967    0.0000 C   0  0  0  0  0  0  0  0  0  0  0  0
   -7.5057    7.3497    0.0000 C   0  0  0  0  0  0  0  0  0  0  0  0
    9.1620    1.1116    0.0000 C   0  0  0  0  0  0  0  0  0  0  0  0
   -6.7441   13.5175    0.0000 C   0  0  0  0  0  0  0  0  0  0  0  0
   -6.9295    2.7967    0.0000 C   0  0  0  0  0  0  0  0  0  0  0  0
    9.7741    0.5585    0.0000 C   0  0  0  0  0  0  0  0  0  0  0  0
   -5.9237   13.4297    0.0000 C   0  0  0  0  0  0  0  0  0  0  0  0
    0.6101    1.7170    0.0000 C   0  0  0  0  0  0  0  0  0  0  0  0
   -7.1024    1.9900    0.0000 C   0  0  0  0  0  0  0  0  0  0  0  0
   -6.9142   14.3247    0.0000 C   0  0  0  0  0  0  0  0  0  0  0  0
    1.2242    2.2681    0.0000 C   0  0  0  0  0  0  0  0  0  0  0  0
   -4.2786   10.5690    0.0000 C   0  0  0  0  0  0  0  0  0  0  0  0
   -6.1990   14.7360    0.0000 C   0  0  0  0  0  0  0  0  0  0  0  0
   -3.7948    9.9006    0.0000 C   0  0  0  0  0  0  0  0  0  0  0  0
   -0.1037    2.1308    0.0000 C   0  0  0  0  0  0  0  0  0  0  0  0
   -3.7925   11.2356    0.0000 C   0  0  0  0  0  0  0  0  0  0  0  0
    0.0692    2.9375    0.0000 C   0  0  0  0  0  0  0  0  0  0  0  0
    7.4647   -3.5135    0.0000 C   0  0  0  0  0  0  0  0  0  0  0  0
   -3.0083   10.9793    0.0000 C   0  0  0  0  0  0  0  0  0  0  0  0
  -10.5849   13.6581    0.0000 C   0  0  0  0  0  0  0  0  0  0  0  0
    5.6039    0.4066    0.0000 C   0  0  0  0  0  0  0  0  0  0  0  0
    8.2489   -3.7699    0.0000 C   0  0  0  0  0  0  0  0  0  0  0  0
   -9.9708   14.2092    0.0000 C   0  0  0  0  0  0  0  0  0  0  0  0
   -6.1039    5.7395    0.0000 C   0  0  0  0  0  0  0  0  0  0  0  0
   -1.3948    0.2657    0.0000 C   0  0  0  0  0  0  0  0  0  0  0  0
   -4.9679    1.9543    0.0000 C   0  0  0  0  0  0  0  0  0  0  0  0
    6.9786   -4.1802    0.0000 C   0  0  0  0  0  0  0  0  0  0  0  0
   16.7122   -8.2226    0.0000 C   0  0  0  0  0  0  0  0  0  0  0  0
    8.0638   -0.7190    0.0000 C   0  0  0  0  0  0  0  0  0  0  0  0
  -11.2987   14.0719    0.0000 C   0  0  0  0  0  0  0  0  0  0  0  0
  -14.0423   11.9794    0.0000 C   0  0  0  0  0  0  0  0  0  0  0  0
   16.8823   -9.0299    0.0000 C   0  0  0  0  0  0  0  0  0  0  0  0
   10.5931   -5.6011    0.0000 C   0  0  0  0  0  0  0  0  0  0  0  0
    7.4624   -4.8484    0.0000 C   0  0  0  0  0  0  0  0  0  0  0  0
  -17.5837   13.5173    0.0000 C   0  0  0  0  0  0  0  0  0  0  0  0
  -13.2581   11.7230    0.0000 C   0  0  0  0  0  0  0  0  0  0  0  0
   14.2378   -4.6731    0.0000 C   0  0  0  0  0  0  0  0  0  0  0  0
  -11.1258   14.8786    0.0000 C   0  0  0  0  0  0  0  0  0  0  0  0
   -5.5124   12.7145    0.0000 C   0  0  0  0  0  0  0  0  0  0  0  0
  -16.9696   14.0683    0.0000 C   0  0  0  0  0  0  0  0  0  0  0  0
   11.3083   -5.1898    0.0000 C   0  0  0  0  0  0  0  0  0  0  0  0
   17.4274   -7.8113    0.0000 C   0  0  0  0  0  0  0  0  0  0  0  0
    2.0309    2.0952    0.0000 C   0  0  0  0  0  0  0  0  0  0  0  0
   14.9515   -5.0869    0.0000 C   0  0  0  0  0  0  0  0  0  0  0  0
   18.0396   -8.3644    0.0000 C   0  0  0  0  0  0  0  0  0  0  0  0
  -14.5284   11.3127    0.0000 C   0  0  0  0  0  0  0  0  0  0  0  0
  -18.2974   13.9310    0.0000 C   0  0  0  0  0  0  0  0  0  0  0  0
   -4.0511    9.1164    0.0000 C   0  0  0  0  0  0  0  0  0  0  0  0
   10.7632   -6.4084    0.0000 C   0  0  0  0  0  0  0  0  0  0  0  0
  -18.1245   14.7377    0.0000 C   0  0  0  0  0  0  0  0  0  0  0  0
   14.4107   -3.8664    0.0000 C   0  0  0  0  0  0  0  0  0  0  0  0
  -14.0446   10.6444    0.0000 C   0  0  0  0  0  0  0  0  0  0  0  0
   11.5836   -6.4961    0.0000 C   0  0  0  0  0  0  0  0  0  0  0  0
   15.2314   -3.7816    0.0000 C   0  0  0  0  0  0  0  0  0  0  0  0
   15.7302  -12.4365    0.0000 C   0  0  0  0  0  0  0  0  0  0  0  0
   -9.1641   14.0362    0.0000 C   0  0  0  0  0  0  0  0  0  0  0  0
    8.9172   -3.2861    0.0000 C   0  0  0  0  0  0  0  0  0  0  0  0
   16.5144  -12.6928    0.0000 C   0  0  0  0  0  0  0  0  0  0  0  0
   15.2442  -13.1031    0.0000 C   0  0  0  0  0  0  0  0  0  0  0  0
  -12.5898   12.2068    0.0000 C   0  0  0  0  0  0  0  0  0  0  0  0
   15.7279  -13.7714    0.0000 C   0  0  0  0  0  0  0  0  0  0  0  0
   16.3292   -9.6421    0.0000 C   0  0  0  0  0  0  0  0  0  0  0  0
  -16.1629   13.8954    0.0000 C   0  0  0  0  0  0  0  0  0  0  0  0
   11.3960   -4.3695    0.0000 C   0  0  0  0  0  0  0  0  0  0  0  0
   15.0363   -5.9075    0.0000 C   0  0  0  0  0  0  0  0  0  0  0  0
    3.1122   -2.1914    0.0000 C   0  0  0  0  0  0  0  0  0  0  0  0
   -3.8866   -2.3323    0.0000 C   0  0  0  0  0  0  0  0  0  0  0  0
   -8.4272    8.4892    0.0000 C   0  0  0  0  0  0  0  0  0  0  0  0
   11.1895    0.1784    0.0000 C   0  0  0  0  0  0  0  0  0  0  0  0
    4.3743   -2.6039    0.0000 C   0  0  0  0  0  0  0  0  0  0  0  0
   -6.7203   16.1056    0.0000 C   0  0  0  0  0  0  0  0  0  0  0  0
   -2.6244   -2.7448    0.0000 C   0  0  0  0  0  0  0  0  0  0  0  0
   -8.9694    7.2770    0.0000 C   0  0  0  0  0  0  0  0  0  0  0  0
   10.9157    1.4776    0.0000 C   0  0  0  0  0  0  0  0  0  0  0  0
   -8.5233    2.1418    0.0000 C   0  0  0  0  0  0  0  0  0  0  0  0
   17.1827  -12.2091    0.0000 C   0  0  0  0  0  0  0  0  0  0  0  0
   -7.9443    0.8353    0.0000 C   0  0  0  0  0  0  0  0  0  0  0  0
   -5.4000   15.9646    0.0000 C   0  0  0  0  0  0  0  0  0  0  0  0
    3.1122   -3.0165    0.0000 C   0  0  0  0  0  0  0  0  0  0  0  0
   18.8586  -14.5241    0.0000 C   0  0  0  0  0  0  0  0  0  0  0  0
   -3.8866   -3.1573    0.0000 C   0  0  0  0  0  0  0  0  0  0  0  0
   -9.2477    8.5754    0.0000 C   0  0  0  0  0  0  0  0  0  0  0  0
   11.9040    0.5909    0.0000 C   0  0  0  0  0  0  0  0  0  0  0  0
   19.5738  -14.1128    0.0000 C   0  0  0  0  0  0  0  0  0  0  0  0
   19.0287  -15.3313    0.0000 C   0  0  0  0  0  0  0  0  0  0  0  0
  -19.4189   10.4247    0.0000 C   0  0  0  0  0  0  0  0  0  0  0  0
   -0.2255    4.3358    0.0000 C   0  0  0  0  0  0  0  0  0  0  0  0
   -6.3821   16.8582    0.0000 C   0  0  0  0  0  0  0  0  0  0  0  0
   19.8490  -15.4191    0.0000 C   0  0  0  0  0  0  0  0  0  0  0  0
  -20.2031   10.6809    0.0000 C   0  0  0  0  0  0  0  0  0  0  0  0
   -1.2890    3.3814    0.0000 C   0  0  0  0  0  0  0  0  0  0  0  0
   -1.5869   11.1262    0.0000 C   0  0  0  0  0  0  0  0  0  0  0  0
   -2.4248   12.2837    0.0000 C   0  0  0  0  0  0  0  0  0  0  0  0
  -19.4912   15.2668    0.0000 C   0  0  0  0  0  0  0  0  0  0  0  0
  -20.6892   10.0143    0.0000 C   0  0  0  0  0  0  0  0  0  0  0  0
   -9.2776    1.8075    0.0000 C   0  0  0  0  0  0  0  0  0  0  0  0
  -20.2054    9.3460    0.0000 C   0  0  0  0  0  0  0  0  0  0  0  0
   19.1032   -7.4100    0.0000 C   0  0  0  0  0  0  0  0  0  0  0  0
    7.7571   -6.2468    0.0000 C   0  0  0  0  0  0  0  0  0  0  0  0
  -18.5028   16.1536    0.0000 C   0  0  0  0  0  0  0  0  0  0  0  0
   19.3978   -8.8084    0.0000 C   0  0  0  0  0  0  0  0  0  0  0  0
  -11.4204   16.2768    0.0000 C   0  0  0  0  0  0  0  0  0  0  0  0
    6.3988   -5.8028    0.0000 C   0  0  0  0  0  0  0  0  0  0  0  0
  -18.7506   10.9084    0.0000 C   0  0  0  0  0  0  0  0  0  0  0  0
  -12.4840   15.3225    0.0000 C   0  0  0  0  0  0  0  0  0  0  0  0
  -15.1082    9.6901    0.0000 C   0  0  0  0  0  0  0  0  0  0  0  0
   12.8199   -7.2127    0.0000 C   0  0  0  0  0  0  0  0  0  0  0  0
   15.2338   -2.3526    0.0000 C   0  0  0  0  0  0  0  0  0  0  0  0
   -9.3653    0.9871    0.0000 C   0  0  0  0  0  0  0  0  0  0  0  0
  -13.7499    9.2461    0.0000 C   0  0  0  0  0  0  0  0  0  0  0  0
   11.5811   -7.9250    0.0000 C   0  0  0  0  0  0  0  0  0  0  0  0
    2.3977   -3.4290    0.0000 C   0  0  0  0  0  0  0  0  0  0  0  0
   16.4701   -3.0693    0.0000 C   0  0  0  0  0  0  0  0  0  0  0  0
   -4.6011   -3.5698    0.0000 C   0  0  0  0  0  0  0  0  0  0  0  0
  -19.8242   16.0217    0.0000 C   0  0  0  0  0  0  0  0  0  0  0  0
   -9.5833    9.3291    0.0000 C   0  0  0  0  0  0  0  0  0  0  0  0
   19.6614  -13.2925    0.0000 C   0  0  0  0  0  0  0  0  0  0  0  0
   12.6184    0.1784    0.0000 C   0  0  0  0  0  0  0  0  0  0  0  0
   -0.7764    4.9498    0.0000 C   0  0  0  0  0  0  0  0  0  0  0  0
   19.9105   -7.2399    0.0000 C   0  0  0  0  0  0  0  0  0  0  0  0
   -6.8648   17.5273    0.0000 C   0  0  0  0  0  0  0  0  0  0  0  0
   -0.9186   11.6099    0.0000 C   0  0  0  0  0  0  0  0  0  0  0  0
   16.0226  -15.1697    0.0000 C   0  0  0  0  0  0  0  0  0  0  0  0
    1.6831   -2.1914    0.0000 C   0  0  0  0  0  0  0  0  0  0  0  0
   -5.3156   -2.3323    0.0000 C   0  0  0  0  0  0  0  0  0  0  0  0
   -8.2779    9.9103    0.0000 C   0  0  0  0  0  0  0  0  0  0  0  0
   14.6643  -14.7258    0.0000 C   0  0  0  0  0  0  0  0  0  0  0  0
   -9.9442    2.2937    0.0000 C   0  0  0  0  0  0  0  0  0  0  0  0
    7.5008   -7.0309    0.0000 C   0  0  0  0  0  0  0  0  0  0  0  0
  -11.9714   16.8909    0.0000 C   0  0  0  0  0  0  0  0  0  0  0  0
   -1.5837    4.7797    0.0000 C   0  0  0  0  0  0  0  0  0  0  0  0
   -8.0238   16.6914    0.0000 C   0  0  0  0  0  0  0  0  0  0  0  0
   -1.0034   12.4307    0.0000 C   0  0  0  0  0  0  0  0  0  0  0  0
   20.4614   -7.8540    0.0000 C   0  0  0  0  0  0  0  0  0  0  0  0
  -15.3645    8.9059    0.0000 C   0  0  0  0  0  0  0  0  0  0  0  0
   13.2312   -7.9279    0.0000 C   0  0  0  0  0  0  0  0  0  0  0  0
   15.6476   -1.6388    0.0000 C   0  0  0  0  0  0  0  0  0  0  0  0
   11.9040   -1.0592    0.0000 C   0  0  0  0  0  0  0  0  0  0  0  0
    6.6935   -7.2011    0.0000 C   0  0  0  0  0  0  0  0  0  0  0  0
  -12.7787   16.7208    0.0000 C   0  0  0  0  0  0  0  0  0  0  0  0
  -20.6444   16.1108    0.0000 C   0  0  0  0  0  0  0  0  0  0  0  0
  -14.8135    8.2918    0.0000 C   0  0  0  0  0  0  0  0  0  0  0  0
   21.0853  -16.1357    0.0000 C   0  0  0  0  0  0  0  0  0  0  0  0
   12.8174   -8.6416    0.0000 C   0  0  0  0  0  0  0  0  0  0  0  0
   16.4726   -1.6403    0.0000 C   0  0  0  0  0  0  0  0  0  0  0  0
   20.1667   -6.4557    0.0000 C   0  0  0  0  0  0  0  0  0  0  0  0
   15.7663  -15.9539    0.0000 C   0  0  0  0  0  0  0  0  0  0  0  0
   19.8466  -16.8480    0.0000 C   0  0  0  0  0  0  0  0  0  0  0  0
  -21.2690    8.3917    0.0000 C   0  0  0  0  0  0  0  0  0  0  0  0
  -19.9107    7.9478    0.0000 C   0  0  0  0  0  0  0  0  0  0  0  0
   14.9590  -16.1240    0.0000 C   0  0  0  0  0  0  0  0  0  0  0  0
  -20.7986   14.6901    0.0000 C   0  0  0  0  0  0  0  0  0  0  0  0
   21.4966  -16.8509    0.0000 C   0  0  0  0  0  0  0  0  0  0  0  0
  -21.5253    7.6075    0.0000 C   0  0  0  0  0  0  0  0  0  0  0  0
   21.0829  -17.5646    0.0000 C   0  0  0  0  0  0  0  0  0  0  0  0
  -20.9743    6.9934    0.0000 C   0  0  0  0  0  0  0  0  0  0  0  0
   22.3216  -16.8523    0.0000 C   0  0  0  0  0  0  0  0  0  0  0  0
  -22.3326    7.4374    0.0000 C   0  0  0  0  0  0  0  0  0  0  0  0
  -18.0202   10.7915    0.0000 Na  0  0  0  0  0 15  0  0  0  0  0  0
   -4.3468    2.3561    0.0000 Na  0  0  0  0  0 15  0  0  0  0  0  0
    7.1723   -0.8679    0.0000 Na  0  0  0  0  0 15  0  0  0  0  0  0
   -5.3897    5.5468    0.0000 Na  0  0  0  0  0 15  0  0  0  0  0  0
    4.0491    2.1974    0.0000 Na  0  0  0  0  0 15  0  0  0  0  0  0
   -4.1604    7.0985    0.0000 Na  0  0  0  0  0 15  0  0  0  0  0  0
   -1.2778    0.9961    0.0000 Na  0  0  0  0  0 15  0  0  0  0  0  0
   -4.7983   12.5219    0.0000 Na  0  0  0  0  0 15  0  0  0  0  0  0
   -9.0619   12.0179    0.0000 Na  0  0  0  0  0 15  0  0  0  0  0  0
    9.1615   -2.4158    0.0000 Na  0  0  0  0  0 15  0  0  0  0  0  0
  -11.0215   10.9323    0.0000 Na  0  0  0  0  0 15  0  0  0  0  0  0
   10.9127   -3.6056    0.0000 Na  0  0  0  0  0 15  0  0  0  0  0  0
   17.0318   -6.2271    0.0000 Na  0  0  0  0  0 15  0  0  0  0  0  0
  -15.5418   14.2972    0.0000 Na  0  0  0  0  0 15  0  0  0  0  0  0
   12.9687   -3.1004    0.0000 Na  0  0  0  0  0 15  0  0  0  0  0  0
   17.4270  -11.3388    0.0000 Na  0  0  0  0  0 15  0  0  0  0  0  0
   19.1782  -12.5287    0.0000 Na  0  0  0  0  0 15  0  0  0  0  0  0
  1 18  2  0
  2 19  2  0
  3 20  2  0
  4 21  2  0
  5 22  2  0
  6 23  2  0
  7 24  2  0
  8 25  2  0
  9 26  2  0
 10 27  2  0
 11 28  2  0
 12 29  2  0
 13 30  2  0
 14 31  2  0
 15 32  2  0
 16 33  1  0
 17 34  2  0
 18 43  1  0
 18 60  1  0
 18 85  1  0
 19 46  1  0
 19 56  1  0
 19 86  1  0
 20 47  1  0
 20 58  1  0
 20 87  1  0
 21 44  1  0
 21 63  1  0
 21 88  1  0
 22 45  1  0
 22 66  1  0
 22 90  1  0
 23 51  1  0
 23 61  1  0
 23 91  1  0
 24 52  1  0
 24 67  1  0
 24 93  1  0
 25 50  1  0
 25 73  1  0
 25 94  1  0
 26 62  1  0
 26 64  1  0
 26 95  1  0
 27 65  1  0
 27 77  1  0
 27 96  1  0
 28 69  1  0
 28 75  1  0
 28 98  1  0
 29 68  1  0
 29 79  1  0
 29 99  1  0
 30 70  1  0
 30 78  1  0
 30100  1  0
 31 71  1  0
 31 80  1  0
 31101  1  0
 32 76  1  0
 32 81  1  0
 32103  1  0
 33 74  1  0
 33 92  1  0
 33106  2  0
 34 84  1  0
 34 89  1  0
 34118  1  0
 35191  1  0
 35201  1  0
 36192  1  0
 36202  1  0
 37193  1  0
 37203  1  0
 38199  1  0
 38207  1  0
 39198  1  0
 39210  1  0
 40208  1  0
 40214  1  0
 41212  1  0
 41218  1  0
 42215  1  0
 42220  1  0
189 43  1  6
188 44  1  6
190 45  1  6
194 46  1  1
195 47  1  6
 48223  1  0
 48235  1  0
 49224  1  0
 49239  1  0
205 50  1  1
209 51  1  1
213 52  1  1
 53233  1  0
 53246  1  0
 54241  1  0
 54251  1  0
 55237  1  0
 55253  1  0
 56222  1  0
 57242  1  0
 57254  1  0
 58225  1  0
 59245  1  0
 59255  1  0
 60227  1  0
 61226  1  0
219 62  1  6
 63244  1  0
 64230  1  0
221 65  1  1
 66249  1  0
 67240  1  0
229 68  1  1
234 69  1  6
232 70  1  6
238 71  1  1
 72259  1  0
 72262  1  0
 73257  1  0
236 74  1  1
 75258  1  0
256 76  1  6
 77261  1  0
 78264  1  0
 79266  1  0
 80265  1  0
 81263  1  0
 82285  1  0
 82290  1  0
 83287  1  0
 83298  1  0
 84277  1  0
281 89  1  6
 92305  1  0
 97278  2  0
291102  1  6
104292  2  0
105294  2  0
107302  2  0
108304  2  0
109306  2  0
110318  1  0
111310  2  0
112311  2  0
113312  2  0
114314  2  0
115313  2  0
116315  2  0
117317  2  0
119322  2  0
120328  2  0
121335  2  0
122349  2  0
123351  2  0
124356  2  0
125357  2  0
201126  1  1
126267  1  0
126271  1  0
202127  1  1
127268  1  0
127273  1  0
203128  1  1
128269  1  0
128274  1  0
207129  1  6
129270  1  0
129275  1  0
210130  1  1
130276  1  0
130278  1  0
214131  1  6
131272  1  0
131279  1  0
218132  1  6
132288  1  0
132292  1  0
220133  1  6
133293  1  0
133294  1  0
235134  1  1
134300  1  0
134304  1  0
239135  1  6
135303  1  0
135306  1  0
251136  1  6
136295  1  0
136301  1  0
246137  1  6
137299  1  0
137302  1  0
253138  1  1
138307  1  0
138311  1  0
254139  1  1
139308  1  0
139312  1  0
255140  1  6
140309  1  0
140314  1  0
262141  1  1
141324  1  0
141328  1  0
142271  2  0
142280  1  0
143273  2  0
143282  1  0
144274  2  0
144283  1  0
145275  2  0
145284  1  0
146279  2  0
146289  1  0
147278  1  0
147310  1  0
148267  1  0
148325  2  0
149268  1  0
149326  2  0
150269  1  0
150327  2  0
151270  1  0
151339  2  0
152272  1  0
152333  2  0
290153  1  1
153344  1  0
153349  1  0
298154  1  1
154350  1  0
154351  1  0
155301  2  0
155316  1  0
156302  1  0
156335  1  0
157292  1  0
157332  2  0
158313  1  0
158325  1  0
159315  1  0
159326  1  0
160294  1  0
160334  2  0
161317  1  0
161327  1  0
162322  1  0
162333  1  0
163304  1  0
163340  2  0
164295  1  0
164353  2  0
165306  1  0
165341  2  0
166311  1  0
166343  2  0
167319  2  0
167339  1  0
168312  1  0
168345  2  0
169314  1  0
169346  2  0
170319  1  0
171328  1  0
171352  2  0
172325  1  0
173326  1  0
174327  1  0
175342  2  0
175353  1  0
176332  1  0
177333  1  0
178334  1  0
179349  1  0
179356  1  0
180351  1  0
180357  1  0
181340  1  0
182341  1  0
183342  1  0
184343  1  0
185345  1  0
186346  1  0
187352  1  0
188191  1  0
188196  1  0
189192  1  0
189197  1  0
190193  1  0
190200  1  0
191222  1  1
192226  1  1
193225  1  1
194199  1  0
194204  1  0
195198  1  0
195206  1  0
196201  1  0
197202  1  0
198227  1  1
199230  1  6
200203  1  0
204207  1  0
205208  1  0
205211  1  0
206210  1  0
208240  1  6
209212  1  0
209216  1  0
211214  1  0
212244  1  6
213215  1  0
213217  1  0
215249  1  6
216218  1  0
217220  1  0
219223  1  0
219228  1  0
221224  1  0
221231  1  0
223258  1  1
224257  1  6
228235  1  0
229233  1  0
229243  1  0
231239  1  0
232237  1  0
232247  1  0
233263  1  6
234242  1  0
234250  1  0
236241  1  0
236248  1  0
237261  1  1
238245  1  0
238252  1  0
241264  1  6
242265  1  1
243246  1  0
245266  1  6
247253  1  0
248251  1  0
250254  1  0
252255  1  0
256259  1  0
256260  1  0
259277  1  1
260262  1  0
267280  2  0
268282  2  0
269283  2  0
270284  2  0
272289  2  0
276297  2  0
280313  1  0
281285  1  0
281286  1  0
282315  1  0
283317  1  0
284319  1  0
285318  1  1
286290  1  0
287291  1  0
287305  1  1
288320  2  0
289322  1  0
291296  1  0
293323  2  0
295316  2  0
296298  1  0
297310  1  0
297329  1  0
299321  2  0
300330  2  0
303331  2  0
307336  2  0
308337  2  0
309338  2  0
316342  1  0
320332  1  0
321335  1  0
321347  1  0
323334  1  0
324348  2  0
330340  1  0
331341  1  0
336343  1  0
337345  1  0
338346  1  0
344354  2  0
348352  1  0
350355  2  0
354356  1  0
354358  1  0
355357  1  0
355359  1  0
M  CHG  8  16  -1  85  -1  86  -1  87  -1  88  -1  90  -1  91  -1  93  -1
M  CHG  8  94  -1  95  -1  96  -1  98  -1  99  -1 100  -1 101  -1 103  -1
M  CHG  8 118  -1 360   1 361   1 362   1 363   1 364   1 365   1 366   1
M  CHG  8 367   1 368   1 369   1 370   1 371   1 372   1 373   1 374   1
M  CHG  2 375   1 376   1
V    1 0
V    2 1
V    3 2
V    4 3
V    5 4
V    6 5
V    7 6
V    8 7
V    9 8
V   10 9
V   11 10
V   12 11
V   13 12
V   14 13
V   15 14
V   16 15
V   17 16
V   18 17
V   19 18
V   20 19
V   21 20
V   22 21
V   23 22
V   24 23
V   25 24
V   26 25
V   27 26
V   28 27
V   29 28
V   30 29
V   31 30
V   32 31
V   33 32
V   34 33
V   35 51
V   36 52
V   37 53
V   38 54
V   39 55
V   40 56
V   41 57
V   42 58
V   43 59
V   44 60
V   45 61
V   46 62
V   47 63
V   48 64
V   49 65
V   50 66
V   51 67
V   52 68
V   53 69
V   54 70
V   55 71
V   56 72
V   57 73
V   58 74
V   59 75
V   60 76
V   61 77
V   62 78
V   63 79
V   64 80
V   65 81
V   66 82
V   67 83
V   68 84
V   69 85
V   70 86
V   71 87
V   72 88
V   73 89
V   74 90
V   75 91
V   76 92
V   77 93
V   78 94
V   79 95
V   80 96
V   81 97
V   82 98
V   83 99
V   84 100
V   85 101
V   86 102
V   87 103
V   88 104
V   89 105
V   90 106
V   91 107
V   92 108
V   93 109
V   94 110
V   95 111
V   96 112
V   97 113
V   98 114
V   99 115
V  100 116
V  101 117
V  102 118
V  103 119
V  104 120
V  105 121
V  106 122
V  107 123
V  108 124
V  109 125
V  110 126
V  111 127
V  112 128
V  113 129
V  114 130
V  115 131
V  116 132
V  117 133
V  118 134
V  119 135
V  120 136
V  121 137
V  122 138
V  123 139
V  124 140
V  125 141
V  126 142
V  127 143
V  128 144
V  129 145
V  130 146
V  131 147
V  132 148
V  133 149
V  134 150
V  135 151
V  136 152
V  137 153
V  138 154
V  139 155
V  140 156
V  141 157
V  142 158
V  143 159
V  144 160
V  145 161
V  146 162
V  147 163
V  148 164
V  149 165
V  150 166
V  151 167
V  152 168
V  153 169
V  154 170
V  155 171
V  156 172
V  157 173
V  158 174
V  159 175
V  160 176
V  161 177
V  162 178
V  163 179
V  164 180
V  165 181
V  166 182
V  167 183
V  168 184
V  169 185
V  170 186
V  171 187
V  172 188
V  173 189
V  174 190
V  175 191
V  176 192
V  177 193
V  178 194
V  179 195
V  180 196
V  181 197
V  182 198
V  183 199
V  184 200
V  185 201
V  186 202
V  187 203
V  188 204
V  189 205
V  190 206
V  191 207
V  192 208
V  193 209
V  194 210
V  195 211
V  196 212
V  197 213
V  198 214
V  199 215
V  200 216
V  201 217
V  202 218
V  203 219
V  204 220
V  205 221
V  206 222
V  207 223
V  208 224
V  209 225
V  210 226
V  211 227
V  212 228
V  213 229
V  214 230
V  215 231
V  216 232
V  217 233
V  218 234
V  219 235
V  220 236
V  221 237
V  222 238
V  223 239
V  224 240
V  225 241
V  226 242
V  227 243
V  228 244
V  229 245
V  230 246
V  231 247
V  232 248
V  233 249
V  234 250
V  235 251
V  236 252
V  237 253
V  238 254
V  239 255
V  240 256
V  241 257
V  242 258
V  243 259
V  244 260
V  245 261
V  246 262
V  247 263
V  248 264
V  249 265
V  250 266
V  251 267
V  252 268
V  253 269
V  254 270
V  255 271
V  256 272
V  257 273
V  258 274
V  259 275
V  260 276
V  261 277
V  262 278
V  263 279
V  264 280
V  265 281
V  266 282
V  267 283
V  268 284
V  269 285
V  270 286
V  271 287
V  272 288
V  273 289
V  274 290
V  275 291
V  276 292
V  277 293
V  278 294
V  279 295
V  280 296
V  281 297
V  282 298
V  283 299
V  284 300
V  285 301
V  286 302
V  287 303
V  288 304
V  289 305
V  290 306
V  291 307
V  292 308
V  293 309
V  294 310
V  295 311
V  296 312
V  297 313
V  298 314
V  299 315
V  300 316
V  301 317
V  302 318
V  303 319
V  304 320
V  305 321
V  306 322
V  307 323
V  308 324
V  309 325
V  310 326
V  311 327
V  312 328
V  313 329
V  314 330
V  315 331
V  316 332
V  317 333
V  318 334
V  319 335
V  320 336
V  321 337
V  322 338
V  323 339
V  324 340
V  325 341
V  326 342
V  327 343
V  328 344
V  329 345
V  330 346
V  331 347
V  332 348
V  333 349
V  334 350
V  335 351
V  336 352
V  337 353
V  338 354
V  339 355
V  340 356
V  341 357
V  342 358
V  343 359
V  344 360
V  345 361
V  346 362
V  347 363
V  348 364
V  349 365
V  350 366
V  351 367
V  352 368
V  353 369
V  354 370
V  355 371
V  356 372
V  357 373
V  358 374
V  359 375
V  360 34
V  361 35
V  362 36
V  363 37
V  364 38
V  365 39
V  366 40
V  367 41
V  368 42
V  369 43
V  370 44
V  371 45
V  372 46
V  373 47
V  374 48
V  375 49
V  376 50
M  END
