 
     RDKit          2D

 33 36  0  0  1  0  0  0  0  0999 V2000
   16.6600  -22.2600    0.0000 C   0  0  0  0  0  0  0  0  0  0  0  0
   16.6600  -23.6600    0.0000 C   0  0  0  0  0  0  0  0  0  0  0  0
   17.8724  -24.3600    0.0000 C   0  0  0  0  0  0  0  0  0  0  0  0
   19.0849  -23.6600    0.0000 C   0  0  0  0  0  0  0  0  0  0  0  0
   19.0849  -22.2600    0.0000 C   0  0  0  0  0  0  0  0  0  0  0  0
   17.8724  -21.5600    0.0000 C   0  0  0  0  0  0  0  0  0  0  0  0
   20.2973  -24.3600    0.0000 C   0  0  0  0  0  0  0  0  0  0  0  0
   21.5097  -23.6600    0.0000 C   0  0  0  0  0  0  0  0  0  0  0  0
   21.5097  -22.2600    0.0000 C   0  0  0  0  0  0  0  0  0  0  0  0
   20.2973  -21.5600    0.0000 C   0  0  0  0  0  0  0  0  0  0  0  0
   22.7222  -21.5600    0.0000 C   0  0  0  0  0  0  0  0  0  0  0  0
   22.7222  -20.1600    0.0000 C   0  0  0  0  0  0  0  0  0  0  0  0
   21.5097  -19.4600    0.0000 C   0  0  0  0  0  0  0  0  0  0  0  0
   20.2973  -20.1600    0.0000 C   0  0  0  0  0  0  0  0  0  0  0  0
   25.1470  -21.5600    0.0000 C   0  0  0  0  0  0  0  0  0  0  0  0
   25.1470  -20.1600    0.0000 C   0  0  0  0  0  0  0  0  0  0  0  0
   23.9346  -19.4600    0.0000 C   0  0  0  0  0  0  0  0  0  0  0  0
   23.9346  -18.0600    0.0000 O   0  0  0  0  0  0  0  0  0  0  0  0
   15.4476  -24.3600    0.0000 O   0  0  0  0  0  0  0  0  0  0  0  0
   25.1511  -17.3577    0.0000 C   0  0  0  0  0  0  0  0  0  0  0  0
   26.3486  -18.0492    0.0000 C   0  0  0  0  0  0  0  0  0  0  0  0
   22.7290  -18.7602    0.0000 C   0  0  0  0  0  0  0  0  0  0  0  0
   25.1511  -15.9602    0.0000 O   0  0  0  0  0  0  0  0  0  0  0  0
   27.5349  -17.3643    0.0000 C   0  0  0  0  0  0  0  0  0  0  0  0
   28.7267  -18.0526    0.0000 C   0  0  0  0  0  0  0  0  0  0  0  0
   29.9159  -17.3661    0.0000 C   0  0  0  0  0  0  0  0  0  0  0  0
   31.1062  -18.0535    0.0000 C   0  0  0  0  0  0  0  0  0  0  0  0
   32.2962  -17.3665    0.0000 C   0  0  0  0  0  0  0  0  0  0  0  0
   33.4861  -18.0537    0.0000 C   0  0  0  0  0  0  0  0  0  0  0  0
   34.6762  -17.3666    0.0000 C   0  0  0  0  0  0  0  0  0  0  0  0
   35.8660  -18.0538    0.0000 C   0  0  0  0  0  0  0  0  0  0  0  0
   37.0562  -17.3666    0.0000 C   0  0  0  0  0  0  0  0  0  0  0  0
   38.2460  -18.0538    0.0000 C   0  0  0  0  0  0  0  0  0  0  0  0
  1  2  1  0
  2  3  1  0
  3  4  2  0
  4  5  1  0
  5  6  1  6
  1  6  1  0
  4  7  1  0
  7  8  1  0
  9  8  1  6
  9 10  1  0
  5 10  1  0
  9 11  1  0
 11 12  1  0
 12 13  1  0
 13 14  1  0
 10 14  1  1
 11 15  1  1
 15 16  1  0
 16 17  1  0
 12 17  1  0
 17 18  1  1
  2 19  2  0
 18 20  1  0
 20 21  1  0
 12 22  1  1
 20 23  2  0
 21 24  1  0
 24 25  1  0
 25 26  1  0
 26 27  1  0
 27 28  1  0
 28 29  1  0
 29 30  1  0
 30 31  1  0
 31 32  1  0
 32 33  1  0
M  END
