 
     RDKit          2D

 20 23  0  0  1  0  0  0  0  0999 V2000
   21.0566  -16.7421    0.0000 C   0  0  0  0  0  0  0  0  0  0  0  0
   19.8006  -17.3701    0.0000 C   0  0  0  0  0  0  0  0  0  0  0  0
   21.0569  -15.3465    0.0000 C   0  0  0  0  0  0  0  0  0  0  0  0
   23.2896  -16.7421    0.0000 C   0  0  0  0  0  0  0  0  0  0  0  0
   18.6143  -16.6723    0.0000 C   0  0  0  0  0  0  0  0  0  0  0  0
   19.8006  -18.6959    0.0000 C   0  0  0  0  0  0  0  0  0  0  0  0
   19.8006  -14.7185    0.0000 C   0  0  0  0  0  0  0  0  0  0  0  0
   22.1034  -14.7185    0.0000 C   0  0  0  0  0  0  0  0  0  0  0  0
   20.9871  -13.9506    0.0000 C   0  0  0  0  0  0  0  0  0  0  0  0
   23.2896  -15.4163    0.0000 C   0  0  0  0  0  0  0  0  0  0  0  0
   17.4281  -17.3701    0.0000 C   0  0  0  0  0  0  0  0  0  0  0  0
   18.6143  -15.3465    0.0000 C   0  0  0  0  0  0  0  0  0  0  0  0
   18.6143  -19.3938    0.0000 C   0  0  0  0  0  0  0  0  0  0  0  0
   22.1029  -12.9737    0.0000 O   0  0  0  0  0  0  0  0  0  0  0  0
   17.4281  -18.6959    0.0000 C   0  0  0  0  0  0  0  0  0  0  0  0
   16.3116  -16.6723    0.0000 C   0  0  0  0  0  0  0  0  0  0  0  0
   16.3116  -19.3938    0.0000 C   0  0  0  0  0  0  0  0  0  0  0  0
   15.1253  -17.3701    0.0000 C   0  0  0  0  0  0  0  0  0  0  0  0
   15.1253  -18.6959    0.0000 C   0  0  0  0  0  0  0  0  0  0  0  0
   13.9390  -19.3938    0.0000 O   0  0  0  0  0  0  0  0  0  0  0  0
  1  2  1  0
  1  3  1  0
  1  4  1  1
  2  5  1  0
  2  6  1  6
  3  7  1  0
  3  8  1  0
  3  9  1  1
  4 10  1  0
  5 11  1  0
  5 12  1  1
  6 13  1  0
  8 14  1  1
 11 15  1  0
 11 16  1  6
 15 17  2  0
 16 18  1  0
 17 19  1  0
 19 20  2  0
  7 12  1  0
  8 10  1  0
 13 15  1  0
 18 19  1  0
M  END
