 
     RDKit          2D

 24 27  0  0  0  0  0  0  0  0999 V2000
   22.7500  -19.5300    0.0000 C   0  0  0  0  0  0  0  0  0  0  0  0
   22.7500  -20.8600    0.0000 C   0  0  0  0  0  0  0  0  0  0  0  0
   23.9400  -21.5600    0.0000 C   0  0  0  0  0  0  0  0  0  0  0  0
   25.1300  -20.8600    0.0000 C   0  0  0  0  0  0  0  0  0  0  0  0
   25.1300  -19.5300    0.0000 C   0  0  0  0  0  0  0  0  0  0  0  0
   23.9400  -18.8300    0.0000 C   0  0  0  0  0  0  0  0  0  0  0  0
   27.5100  -20.8600    0.0000 C   0  0  0  0  0  0  0  0  0  0  0  0
   27.5100  -19.5300    0.0000 C   0  0  0  0  0  0  0  0  0  0  0  0
   26.3200  -18.8300    0.0000 C   0  0  0  0  0  0  0  0  0  0  0  0
   28.7000  -21.5600    0.0000 C   0  0  0  0  0  0  0  0  0  0  0  0
   29.8900  -20.8600    0.0000 C   0  0  0  0  0  0  0  0  0  0  0  0
   29.8900  -19.5300    0.0000 C   0  0  0  0  0  0  0  0  0  0  0  0
   28.7000  -18.8300    0.0000 C   0  0  0  0  0  0  0  0  0  0  0  0
   27.4400  -17.6400    0.0000 C   0  0  0  0  0  0  0  0  0  0  0  0
   27.0200  -16.3800    0.0000 N   0  0  0  0  0  0  0  0  0  0  0  0
   25.6900  -16.3800    0.0000 C   0  0  0  0  0  0  0  0  0  0  0  0
   25.2000  -17.7100    0.0000 C   0  0  0  0  0  0  0  0  0  0  0  0
   21.5600  -21.5600    0.0000 O   0  0  0  0  0  0  0  0  0  0  0  0
   31.1500  -21.5600    0.0000 O   0  0  0  0  0  0  0  0  0  0  0  0
   24.9900  -15.1900    0.0000 C   0  0  0  0  0  0  0  0  0  0  0  0
   28.8400  -17.6400    0.0000 O   0  0  0  0  0  0  0  0  0  0  0  0
   23.5900  -15.1900    0.0000 C   0  0  0  0  0  0  0  0  0  0  0  0
   22.8900  -16.4500    0.0000 C   0  0  0  0  0  0  0  0  0  0  0  0
   23.5900  -17.7100    0.0000 C   0  0  0  0  0  0  0  0  0  0  0  0
  1  2  2  0
  2  3  1  0
  3  4  2  0
  4  5  1  0
  5  6  2  0
  1  6  1  0
  7  8  2  0
  8  9  1  0
  5  9  1  0
  7 10  1  0
 10 11  2  0
 11 12  1  0
 12 13  2  0
  8 13  1  0
  9 14  1  0
 14 15  1  0
 15 16  1  0
 16 17  2  0
  9 17  1  0
  2 18  1  0
 11 19  1  0
 16 20  1  0
 14 21  2  0
 20 22  2  0
 22 23  1  0
 23 24  2  0
 24 17  1  0
M  END
