 
     RDKit          2D

 49 49  0  0  1  0  0  0  0  0999 V2000
   19.3200  -14.9100    0.0000 C   0  0  0  0  0  0  0  0  0  0  0  0
   19.3200  -16.3100    0.0000 C   0  0  0  0  0  0  0  0  0  0  0  0
   20.5100  -14.2800    0.0000 S   0  0  0  0  0  0  0  0  0  0  0  0
   17.9900  -14.4900    0.0000 S   0  0  0  0  0  0  0  0  0  0  0  0
   20.5100  -17.0100    0.0000 C   0  0  0  0  0  0  0  0  0  0  0  0
   17.9900  -16.7300    0.0000 C   0  0  0  0  0  0  0  0  0  0  0  0
   21.7000  -14.9100    0.0000 C   0  0  0  0  0  0  0  0  0  0  0  0
   19.2500  -13.3700    0.0000 O   0  0  0  0  0  0  0  0  0  0  0  0
   21.6300  -13.4400    0.0000 O   0  0  0  0  0  0  0  0  0  0  0  0
   17.2200  -15.6100    0.0000 C   0  0  0  0  0  0  0  0  0  0  0  0
   21.7000  -16.3100    0.0000 C   0  0  0  0  0  0  0  0  0  0  0  0
   20.5100  -18.4100    0.0000 N   0  0  0  0  0  0  0  0  0  0  0  0
   22.8900  -14.2800    0.0000 C   0  0  0  0  0  0  0  0  0  0  0  0
   15.8200  -15.6100    0.0000 S   0  0  0  0  0  0  0  0  0  0  0  0
   21.7000  -19.0400    0.0000 C   0  0  0  0  0  0  0  0  0  0  0  0
   15.8200  -17.2200    0.0000 N   0  0  0  0  0  0  0  0  0  0  0  0
   15.8200  -14.2800    0.0000 O   0  0  0  0  0  0  0  0  0  0  0  0
   14.3500  -15.6100    0.0000 O   0  0  0  0  0  0  0  0  0  0  0  0
   21.7314  -20.4396    0.0000 C   0  0  0  0  0  0  0  0  0  0  0  0
   23.7300  -17.6400    0.0000 Cl  0  0  0  0  0  0  0  0  0  0  0  0
   27.1995  -15.4829    0.0000 C   0  0  0  0  0  0  0  0  0  0  0  0
   25.5020  -15.4829    0.0000 C   0  0  0  0  0  0  0  0  0  0  0  0
   27.8361  -16.6145    0.0000 C   0  0  0  0  0  0  0  0  0  0  0  0
   24.8653  -16.6852    0.0000 C   0  0  0  0  0  0  0  0  0  0  0  0
   27.1995  -17.8170    0.0000 O   0  0  0  0  0  0  0  0  0  0  0  0
   29.2508  -16.6145    0.0000 O   0  0  0  0  0  0  0  0  0  0  0  0
   23.4508  -16.6852    0.0000 O   0  0  0  0  0  0  0  0  0  0  0  0
   25.5020  -17.8170    0.0000 O   0  0  0  0  0  0  0  0  0  0  0  0
   14.1400  -15.9600    0.0000 C   0  0  0  0  0  0  0  0  0  0  0  0
   15.3300  -16.6600    0.0000 C   0  0  0  0  0  0  0  0  0  0  0  0
   12.9500  -16.6600    0.0000 O   0  0  0  0  0  0  0  0  0  0  0  0
   16.5200  -15.9600    0.0000 C   0  0  0  0  0  0  0  0  0  0  0  0
   17.7100  -16.6600    0.0000 N   0  0  0  0  0  0  0  0  0  0  0  0
   18.9000  -15.9600    0.0000 C   0  0  0  0  0  0  0  0  0  0  0  0
   20.1600  -16.6600    0.0000 C   0  0  0  0  0  0  0  0  0  0  0  0
   18.9000  -14.5600    0.0000 C   0  0  0  0  0  0  0  0  0  0  0  0
   20.1600  -15.2600    0.0000 C   0  0  0  0  0  0  0  0  0  0  0  0
   15.3300  -18.0600    0.0000 O   0  0  0  0  0  0  0  0  0  0  0  0
   12.9500  -18.0600    0.0000 C   0  0  0  0  0  0  0  0  0  0  0  0
   11.8300  -18.9700    0.0000 C   0  0  0  0  0  0  0  0  0  0  0  0
   12.2500  -20.2300    0.0000 N   0  0  0  0  0  0  0  0  0  0  0  0
   13.6500  -20.2300    0.0000 S   0  0  0  0  0  0  0  0  0  0  0  0
   14.0700  -18.9700    0.0000 N   0  0  0  0  0  0  0  0  0  0  0  0
    8.1200  -16.8000    0.0000 O   0  0  0  0  0  0  0  0  0  0  0  0
    8.1200  -18.2700    0.0000 C   0  0  0  0  0  0  0  0  0  0  0  0
    9.3100  -18.9700    0.0000 C   0  0  0  0  0  0  0  0  0  0  0  0
   10.5700  -18.2700    0.0000 N   0  0  0  0  0  0  0  0  0  0  0  0
   10.5700  -16.8000    0.0000 C   0  0  0  0  0  0  0  0  0  0  0  0
    9.3100  -16.1000    0.0000 C   0  0  0  0  0  0  0  0  0  0  0  0
  1  2  2  0
  1  3  1  0
  1  4  1  0
  2  5  1  0
  2  6  1  0
  3  7  1  0
  3  8  2  0
  3  9  2  0
  4 10  1  0
  5 11  1  0
  5 12  1  6
  7 13  1  1
 10 14  1  0
 12 15  1  0
 14 16  1  0
 14 17  2  0
 14 18  2  0
  6 10  2  0
  7 11  1  0
 15 19  1  0
 21 22  2  0
 21 23  1  0
 22 24  1  0
 23 25  1  0
 23 26  2  0
 24 27  1  0
 24 28  2  0
 29 30  1  0
 29 31  1  0
 30 32  1  0
 32 33  1  0
 33 34  1  0
 34 35  1  0
 34 36  1  0
 34 37  1  0
 30 38  1  6
 31 39  1  0
 39 40  1  0
 40 41  2  0
 41 42  1  0
 42 43  1  0
 39 43  2  0
 44 45  1  0
 45 46  1  0
 46 47  1  0
 47 48  1  0
 48 49  1  0
 44 49  1  0
 47 40  1  0
M  END
