 
     RDKit          2D

295307  0  0  0  0  0  0  0  0999 V2000
   29.5695  -18.6304    0.0000 C   0  0  0  0  0  0  0  0  0  0  0  0
   28.3142  -19.3278    0.0000 C   0  0  0  0  0  0  0  0  0  0  0  0
   30.7550  -19.3278    0.0000 C   0  0  0  0  0  0  0  0  0  0  0  0
   29.5698  -17.2357    0.0000 S   0  0  0  0  0  0  0  0  0  0  0  0
   28.3142  -20.6528    0.0000 C   0  0  0  0  0  0  0  0  0  0  0  0
   30.7550  -20.6528    0.0000 C   0  0  0  0  0  0  0  0  0  0  0  0
   29.5698  -15.8409    0.0000 O   0  0  0  0  0  0  0  0  0  0  0  0
   28.1750  -17.2357    0.0000 O   0  0  0  0  0  0  0  0  0  0  0  0
   30.9645  -17.2357    0.0000 O   0  0  0  0  0  0  0  0  0  0  0  0
   29.5695  -21.3502    0.0000 C   0  0  0  0  0  0  0  0  0  0  0  0
   19.3368  -16.0762    0.0000 C   0  0  0  0  0  0  0  0  0  0  0  0
   20.5198  -15.3803    0.0000 C   0  0  0  0  0  0  0  0  0  0  0  0
   18.1539  -15.3803    0.0000 C   0  0  0  0  0  0  0  0  0  0  0  0
   19.3368  -18.4421    0.0000 C   0  0  0  0  0  0  0  0  0  0  0  0
   20.5198  -13.9886    0.0000 C   0  0  0  0  0  0  0  0  0  0  0  0
   21.7028  -16.0762    0.0000 C   0  0  0  0  0  0  0  0  0  0  0  0
   18.1539  -13.9886    0.0000 C   0  0  0  0  0  0  0  0  0  0  0  0
   16.9709  -16.0066    0.0000 C   0  0  0  0  0  0  0  0  0  0  0  0
   20.5198  -19.1380    0.0000 C   0  0  0  0  0  0  0  0  0  0  0  0
   18.1539  -19.1380    0.0000 C   0  0  0  0  0  0  0  0  0  0  0  0
   19.3368  -13.2927    0.0000 N   0  0  0  0  0  0  0  0  0  0  0  0
   21.7028  -13.2927    0.0000 C   0  0  0  0  0  0  0  0  0  0  0  0
   22.8858  -15.3803    0.0000 O   0  0  0  0  0  0  0  0  0  0  0  0
   21.7028  -17.3983    0.0000 O   0  0  0  0  0  0  0  0  0  0  0  0
   16.9709  -13.2927    0.0000 C   0  0  0  0  0  0  0  0  0  0  0  0
   15.7879  -15.3803    0.0000 O   0  0  0  0  0  0  0  0  0  0  0  0
   16.9709  -17.3983    0.0000 O   0  0  0  0  0  0  0  0  0  0  0  0
   20.5198  -20.4601    0.0000 C   0  0  0  0  0  0  0  0  0  0  0  0
   21.7028  -18.4421    0.0000 Cl  0  0  0  0  0  0  0  0  0  0  0  0
   18.1539  -20.4601    0.0000 C   0  0  0  0  0  0  0  0  0  0  0  0
   22.8858  -13.9886    0.0000 O   0  0  0  0  0  0  0  0  0  0  0  0
   24.0687  -16.0762    0.0000 C   0  0  0  0  0  0  0  0  0  0  0  0
   14.6049  -16.0066    0.0000 C   0  0  0  0  0  0  0  0  0  0  0  0
   19.3368  -21.1560    0.0000 C   0  0  0  0  0  0  0  0  0  0  0  0
   24.0687  -13.2927    0.0000 C   0  0  0  0  0  0  0  0  0  0  0  0
   25.2517  -15.3803    0.0000 C   0  0  0  0  0  0  0  0  0  0  0  0
   25.2517  -13.9886    0.0000 C   0  0  0  0  0  0  0  0  0  0  0  0
   26.4347  -13.2927    0.0000 N   0  0  0  0  0  0  0  0  0  0  0  0
   22.6759  -21.0892    0.0000 C   0  0  0  0  0  0  0  0  0  0  0  0
   24.0739  -21.0892    0.0000 C   0  0  0  0  0  0  0  0  0  0  0  0
   24.4932  -19.7378    0.0000 C   0  0  0  0  0  0  0  0  0  0  0  0
   23.3749  -18.9456    0.0000 N   0  0  0  0  0  0  0  0  0  0  0  0
   22.2100  -19.7378    0.0000 C   0  0  0  0  0  0  0  0  0  0  0  0
   21.8371  -22.2075    0.0000 C   0  0  0  0  0  0  0  0  0  0  0  0
   25.7980  -19.3184    0.0000 C   0  0  0  0  0  0  0  0  0  0  0  0
   20.9052  -19.3184    0.0000 C   0  0  0  0  0  0  0  0  0  0  0  0
   23.3749  -17.5477    0.0000 C   0  0  0  0  0  0  0  0  0  0  0  0
   24.5865  -16.8487    0.0000 C   0  0  0  0  0  0  0  0  0  0  0  0
   24.5865  -15.4508    0.0000 C   0  0  0  0  0  0  0  0  0  0  0  0
   25.7980  -14.7519    0.0000 O   0  0  0  0  0  0  0  0  0  0  0  0
   23.3749  -14.7519    0.0000 C   0  0  0  0  0  0  0  0  0  0  0  0
   23.3749  -13.3539    0.0000 C   0  0  0  0  0  0  0  0  0  0  0  0
   24.5865  -12.6550    0.0000 C   0  0  0  0  0  0  0  0  0  0  0  0
   22.1634  -12.6550    0.0000 O   0  0  0  0  0  0  0  0  0  0  0  0
   25.9844  -12.6550    0.0000 C   0  0  0  0  0  0  0  0  0  0  0  0
   26.6834  -13.8666    0.0000 O   0  0  0  0  0  0  0  0  0  0  0  0
   26.6834  -11.4435    0.0000 O   0  0  0  0  0  0  0  0  0  0  0  0
   20.6256  -17.9205    0.0000 C   0  0  0  0  0  0  0  0  0  0  0  0
   19.2743  -17.5011    0.0000 C   0  0  0  0  0  0  0  0  0  0  0  0
   18.2492  -18.4331    0.0000 C   0  0  0  0  0  0  0  0  0  0  0  0
   18.5288  -19.8310    0.0000 C   0  0  0  0  0  0  0  0  0  0  0  0
   19.8800  -20.2504    0.0000 C   0  0  0  0  0  0  0  0  0  0  0  0
   26.8697  -20.2504    0.0000 C   0  0  0  0  0  0  0  0  0  0  0  0
   26.1241  -17.9205    0.0000 C   0  0  0  0  0  0  0  0  0  0  0  0
   16.8979  -18.0137    0.0000 F   0  0  0  0  0  0  0  0  0  0  0  0
   24.8881  -22.1939    0.0000 C   0  0  0  0  0  0  0  0  0  0  0  0
   26.2874  -22.1939    0.0000 N   0  0  0  0  0  0  0  0  0  0  0  0
   24.2674  -23.4227    0.0000 O   0  0  0  0  0  0  0  0  0  0  0  0
   26.9855  -23.4031    0.0000 C   0  0  0  0  0  0  0  0  0  0  0  0
   26.3066  -24.5794    0.0000 C   0  0  0  0  0  0  0  0  0  0  0  0
   27.0062  -25.7913    0.0000 C   0  0  0  0  0  0  0  0  0  0  0  0
   28.4055  -25.7912    0.0000 C   0  0  0  0  0  0  0  0  0  0  0  0
   29.0846  -24.6148    0.0000 C   0  0  0  0  0  0  0  0  0  0  0  0
   28.3848  -23.4030    0.0000 C   0  0  0  0  0  0  0  0  0  0  0  0
   20.4310  -22.1443    0.0000 C   0  0  0  0  0  0  0  0  0  0  0  0
   19.6783  -23.3240    0.0000 C   0  0  0  0  0  0  0  0  0  0  0  0
   20.3236  -24.6356    0.0000 C   0  0  0  0  0  0  0  0  0  0  0  0
   21.7318  -24.6282    0.0000 C   0  0  0  0  0  0  0  0  0  0  0  0
   22.4845  -23.4486    0.0000 C   0  0  0  0  0  0  0  0  0  0  0  0
   31.9955  -16.4087    0.0000 Ca  0  0  0  0  0 15  0  0  0  0  0  0
   33.3743  -18.9605    0.0000 O   0  0  0  0  0  0  0  0  0  0  0  0
   22.6759  -21.0892    0.0000 C   0  0  0  0  0  0  0  0  0  0  0  0
   24.0739  -21.0892    0.0000 C   0  0  0  0  0  0  0  0  0  0  0  0
   24.4932  -19.7378    0.0000 C   0  0  0  0  0  0  0  0  0  0  0  0
   23.3749  -18.9456    0.0000 N   0  0  0  0  0  0  0  0  0  0  0  0
   22.2100  -19.7378    0.0000 C   0  0  0  0  0  0  0  0  0  0  0  0
   20.9052  -19.3184    0.0000 C   0  0  0  0  0  0  0  0  0  0  0  0
   20.6256  -17.9205    0.0000 C   0  0  0  0  0  0  0  0  0  0  0  0
   19.2743  -17.5011    0.0000 C   0  0  0  0  0  0  0  0  0  0  0  0
   18.2492  -18.4331    0.0000 C   0  0  0  0  0  0  0  0  0  0  0  0
   18.5288  -19.8310    0.0000 C   0  0  0  0  0  0  0  0  0  0  0  0
   19.8800  -20.2504    0.0000 C   0  0  0  0  0  0  0  0  0  0  0  0
   16.8979  -18.0137    0.0000 F   0  0  0  0  0  0  0  0  0  0  0  0
   23.3749  -17.5477    0.0000 C   0  0  0  0  0  0  0  0  0  0  0  0
   24.5865  -16.8487    0.0000 C   0  0  0  0  0  0  0  0  0  0  0  0
   24.5865  -15.4508    0.0000 C   0  0  0  0  0  0  0  0  0  0  0  0
   25.7980  -14.7519    0.0000 O   0  0  0  0  0  0  0  0  0  0  0  0
   23.3749  -14.7519    0.0000 C   0  0  0  0  0  0  0  0  0  0  0  0
   23.3749  -13.3539    0.0000 C   0  0  0  0  0  0  0  0  0  0  0  0
   24.5865  -12.6550    0.0000 C   0  0  0  0  0  0  0  0  0  0  0  0
   25.9844  -12.6550    0.0000 C   0  0  0  0  0  0  0  0  0  0  0  0
   26.6834  -13.8666    0.0000 O   0  0  0  0  0  0  0  0  0  0  0  0
   26.6834  -11.4435    0.0000 O   0  0  0  0  0  0  0  0  0  0  0  0
   22.1634  -12.6550    0.0000 O   0  0  0  0  0  0  0  0  0  0  0  0
   25.7980  -19.3184    0.0000 C   0  0  0  0  0  0  0  0  0  0  0  0
   26.8697  -20.2504    0.0000 C   0  0  0  0  0  0  0  0  0  0  0  0
   26.1241  -17.9205    0.0000 C   0  0  0  0  0  0  0  0  0  0  0  0
   24.8881  -22.1939    0.0000 C   0  0  0  0  0  0  0  0  0  0  0  0
   26.2874  -22.1939    0.0000 N   0  0  0  0  0  0  0  0  0  0  0  0
   26.9855  -23.4031    0.0000 C   0  0  0  0  0  0  0  0  0  0  0  0
   26.3066  -24.5794    0.0000 C   0  0  0  0  0  0  0  0  0  0  0  0
   27.0062  -25.7913    0.0000 C   0  0  0  0  0  0  0  0  0  0  0  0
   28.4055  -25.7912    0.0000 C   0  0  0  0  0  0  0  0  0  0  0  0
   29.0846  -24.6148    0.0000 C   0  0  0  0  0  0  0  0  0  0  0  0
   28.3848  -23.4030    0.0000 C   0  0  0  0  0  0  0  0  0  0  0  0
   24.2674  -23.4227    0.0000 O   0  0  0  0  0  0  0  0  0  0  0  0
   21.8371  -22.2075    0.0000 C   0  0  0  0  0  0  0  0  0  0  0  0
   20.4310  -22.1443    0.0000 C   0  0  0  0  0  0  0  0  0  0  0  0
   19.6783  -23.3240    0.0000 C   0  0  0  0  0  0  0  0  0  0  0  0
   20.3236  -24.6356    0.0000 C   0  0  0  0  0  0  0  0  0  0  0  0
   21.7318  -24.6282    0.0000 C   0  0  0  0  0  0  0  0  0  0  0  0
   22.4845  -23.4486    0.0000 C   0  0  0  0  0  0  0  0  0  0  0  0
   33.3743  -18.9605    0.0000 O   0  0  0  0  0  0  0  0  0  0  0  0
   33.3743  -18.9605    0.0000 O   0  0  0  0  0  0  0  0  0  0  0  0
   24.7759  -21.2292    0.0000 C   0  0  0  0  0  0  0  0  0  0  0  0
   26.1739  -21.2292    0.0000 C   0  0  0  0  0  0  0  0  0  0  0  0
   26.5932  -19.8778    0.0000 C   0  0  0  0  0  0  0  0  0  0  0  0
   25.4749  -19.0856    0.0000 N   0  0  0  0  0  0  0  0  0  0  0  0
   24.3100  -19.8778    0.0000 C   0  0  0  0  0  0  0  0  0  0  0  0
   23.9371  -22.3475    0.0000 C   0  0  0  0  0  0  0  0  0  0  0  0
   27.8980  -19.4584    0.0000 C   0  0  0  0  0  0  0  0  0  0  0  0
   23.0052  -19.4584    0.0000 C   0  0  0  0  0  0  0  0  0  0  0  0
   25.4749  -17.6877    0.0000 C   0  0  0  0  0  0  0  0  0  0  0  0
   26.6865  -16.9887    0.0000 C   0  0  0  0  0  0  0  0  0  0  0  0
   26.6865  -15.5908    0.0000 C   0  0  0  0  0  0  0  0  0  0  0  0
   27.8980  -14.8919    0.0000 O   0  0  0  0  0  0  0  0  0  0  0  0
   25.4749  -14.8919    0.0000 C   0  0  0  0  0  0  0  0  0  0  0  0
   25.4749  -13.4939    0.0000 C   0  0  0  0  0  0  0  0  0  0  0  0
   26.6865  -12.7950    0.0000 C   0  0  0  0  0  0  0  0  0  0  0  0
   24.2634  -12.7950    0.0000 O   0  0  0  0  0  0  0  0  0  0  0  0
   28.0844  -12.7950    0.0000 C   0  0  0  0  0  0  0  0  0  0  0  0
   28.7834  -14.0066    0.0000 O   0  0  0  0  0  0  0  0  0  0  0  0
   28.7834  -11.5835    0.0000 O   0  0  0  0  0  0  0  0  0  0  0  0
   22.7256  -18.0605    0.0000 C   0  0  0  0  0  0  0  0  0  0  0  0
   21.3743  -17.6411    0.0000 C   0  0  0  0  0  0  0  0  0  0  0  0
   20.3492  -18.5731    0.0000 C   0  0  0  0  0  0  0  0  0  0  0  0
   20.6288  -19.9710    0.0000 C   0  0  0  0  0  0  0  0  0  0  0  0
   21.9800  -20.3904    0.0000 C   0  0  0  0  0  0  0  0  0  0  0  0
   28.9697  -20.3904    0.0000 C   0  0  0  0  0  0  0  0  0  0  0  0
   28.2241  -18.0605    0.0000 C   0  0  0  0  0  0  0  0  0  0  0  0
   18.9979  -18.1537    0.0000 F   0  0  0  0  0  0  0  0  0  0  0  0
   26.9881  -22.3339    0.0000 C   0  0  0  0  0  0  0  0  0  0  0  0
   28.3874  -22.3339    0.0000 N   0  0  0  0  0  0  0  0  0  0  0  0
   26.3674  -23.5627    0.0000 O   0  0  0  0  0  0  0  0  0  0  0  0
   29.0855  -23.5431    0.0000 C   0  0  0  0  0  0  0  0  0  0  0  0
   28.4066  -24.7194    0.0000 C   0  0  0  0  0  0  0  0  0  0  0  0
   29.1062  -25.9313    0.0000 C   0  0  0  0  0  0  0  0  0  0  0  0
   30.5055  -25.9312    0.0000 C   0  0  0  0  0  0  0  0  0  0  0  0
   31.1846  -24.7548    0.0000 C   0  0  0  0  0  0  0  0  0  0  0  0
   30.4848  -23.5430    0.0000 C   0  0  0  0  0  0  0  0  0  0  0  0
   22.5310  -22.3543    0.0000 C   0  0  0  0  0  0  0  0  0  0  0  0
   21.7783  -23.4640    0.0000 C   0  0  0  0  0  0  0  0  0  0  0  0
   22.4236  -24.7756    0.0000 C   0  0  0  0  0  0  0  0  0  0  0  0
   23.8318  -24.7682    0.0000 C   0  0  0  0  0  0  0  0  0  0  0  0
   24.5845  -23.5886    0.0000 C   0  0  0  0  0  0  0  0  0  0  0  0
   32.8355  -18.0187    0.0000 Ca  0  0  0  0  0 15  0  0  0  0  0  0
   24.7759  -21.2292    0.0000 C   0  0  0  0  0  0  0  0  0  0  0  0
   26.1739  -21.2292    0.0000 C   0  0  0  0  0  0  0  0  0  0  0  0
   26.5932  -19.8778    0.0000 C   0  0  0  0  0  0  0  0  0  0  0  0
   25.4749  -19.0856    0.0000 N   0  0  0  0  0  0  0  0  0  0  0  0
   24.3100  -19.8778    0.0000 C   0  0  0  0  0  0  0  0  0  0  0  0
   23.0052  -19.4584    0.0000 C   0  0  0  0  0  0  0  0  0  0  0  0
   22.7256  -18.0605    0.0000 C   0  0  0  0  0  0  0  0  0  0  0  0
   21.3743  -17.6411    0.0000 C   0  0  0  0  0  0  0  0  0  0  0  0
   20.3492  -18.5731    0.0000 C   0  0  0  0  0  0  0  0  0  0  0  0
   20.6288  -19.9710    0.0000 C   0  0  0  0  0  0  0  0  0  0  0  0
   21.9800  -20.3904    0.0000 C   0  0  0  0  0  0  0  0  0  0  0  0
   18.9979  -18.1537    0.0000 F   0  0  0  0  0  0  0  0  0  0  0  0
   25.4749  -17.6877    0.0000 C   0  0  0  0  0  0  0  0  0  0  0  0
   26.6865  -16.9887    0.0000 C   0  0  0  0  0  0  0  0  0  0  0  0
   26.6865  -15.5908    0.0000 C   0  0  0  0  0  0  0  0  0  0  0  0
   27.8980  -14.8919    0.0000 O   0  0  0  0  0  0  0  0  0  0  0  0
   25.4749  -14.8919    0.0000 C   0  0  0  0  0  0  0  0  0  0  0  0
   25.4749  -13.4939    0.0000 C   0  0  0  0  0  0  0  0  0  0  0  0
   26.6865  -12.7950    0.0000 C   0  0  0  0  0  0  0  0  0  0  0  0
   28.0844  -12.7950    0.0000 C   0  0  0  0  0  0  0  0  0  0  0  0
   28.7834  -14.0066    0.0000 O   0  0  0  0  0  0  0  0  0  0  0  0
   28.7834  -11.5835    0.0000 O   0  0  0  0  0  0  0  0  0  0  0  0
   24.2634  -12.7950    0.0000 O   0  0  0  0  0  0  0  0  0  0  0  0
   27.8980  -19.4584    0.0000 C   0  0  0  0  0  0  0  0  0  0  0  0
   28.9697  -20.3904    0.0000 C   0  0  0  0  0  0  0  0  0  0  0  0
   28.2241  -18.0605    0.0000 C   0  0  0  0  0  0  0  0  0  0  0  0
   26.9881  -22.3339    0.0000 C   0  0  0  0  0  0  0  0  0  0  0  0
   28.3874  -22.3339    0.0000 N   0  0  0  0  0  0  0  0  0  0  0  0
   29.0855  -23.5431    0.0000 C   0  0  0  0  0  0  0  0  0  0  0  0
   28.4066  -24.7194    0.0000 C   0  0  0  0  0  0  0  0  0  0  0  0
   29.1062  -25.9313    0.0000 C   0  0  0  0  0  0  0  0  0  0  0  0
   30.5055  -25.9312    0.0000 C   0  0  0  0  0  0  0  0  0  0  0  0
   31.1846  -24.7548    0.0000 C   0  0  0  0  0  0  0  0  0  0  0  0
   30.4848  -23.5430    0.0000 C   0  0  0  0  0  0  0  0  0  0  0  0
   26.3674  -23.5627    0.0000 O   0  0  0  0  0  0  0  0  0  0  0  0
   23.9371  -22.3475    0.0000 C   0  0  0  0  0  0  0  0  0  0  0  0
   22.5310  -22.3543    0.0000 C   0  0  0  0  0  0  0  0  0  0  0  0
   21.7783  -23.4640    0.0000 C   0  0  0  0  0  0  0  0  0  0  0  0
   22.4236  -24.7756    0.0000 C   0  0  0  0  0  0  0  0  0  0  0  0
   23.8318  -24.7682    0.0000 C   0  0  0  0  0  0  0  0  0  0  0  0
   24.5845  -23.5886    0.0000 C   0  0  0  0  0  0  0  0  0  0  0  0
   18.0600  -19.0400    0.0000 C   0  0  0  0  0  0  0  0  0  0  0  0
   19.4600  -19.0400    0.0000 C   0  0  0  0  0  0  0  0  0  0  0  0
   19.8800  -17.7100    0.0000 C   0  0  0  0  0  0  0  0  0  0  0  0
   18.7600  -16.9400    0.0000 N   0  0  0  0  0  0  0  0  0  0  0  0
   17.5700  -17.7100    0.0000 C   0  0  0  0  0  0  0  0  0  0  0  0
   17.2200  -20.1600    0.0000 C   0  0  0  0  0  0  0  0  0  0  0  0
   21.2100  -17.2900    0.0000 C   0  0  0  0  0  0  0  0  0  0  0  0
   16.3100  -17.2900    0.0000 C   0  0  0  0  0  0  0  0  0  0  0  0
   18.7600  -15.5400    0.0000 C   0  0  0  0  0  0  0  0  0  0  0  0
   19.9500  -14.8400    0.0000 C   0  0  0  0  0  0  0  0  0  0  0  0
   19.9500  -13.4400    0.0000 C   0  0  0  0  0  0  0  0  0  0  0  0
   21.2100  -12.7400    0.0000 O   0  0  0  0  0  0  0  0  0  0  0  0
   18.7600  -12.7400    0.0000 C   0  0  0  0  0  0  0  0  0  0  0  0
   18.7600  -11.3400    0.0000 C   0  0  0  0  0  0  0  0  0  0  0  0
   19.9500  -10.6400    0.0000 C   0  0  0  0  0  0  0  0  0  0  0  0
   17.5700  -10.6400    0.0000 O   0  0  0  0  0  0  0  0  0  0  0  0
   21.3500  -10.6400    0.0000 C   0  0  0  0  0  0  0  0  0  0  0  0
   22.0500  -11.8300    0.0000 O   0  0  0  0  0  0  0  0  0  0  0  0
   22.0500   -9.3800    0.0000 O   0  0  0  0  0  0  0  0  0  0  0  0
   16.0300  -15.8900    0.0000 C   0  0  0  0  0  0  0  0  0  0  0  0
   14.6300  -15.4700    0.0000 C   0  0  0  0  0  0  0  0  0  0  0  0
   13.6500  -16.3800    0.0000 C   0  0  0  0  0  0  0  0  0  0  0  0
   13.9300  -17.7800    0.0000 C   0  0  0  0  0  0  0  0  0  0  0  0
   15.2600  -18.2000    0.0000 C   0  0  0  0  0  0  0  0  0  0  0  0
   22.2600  -18.2000    0.0000 C   0  0  0  0  0  0  0  0  0  0  0  0
   21.4900  -15.8900    0.0000 C   0  0  0  0  0  0  0  0  0  0  0  0
   12.2500  -15.9600    0.0000 F   0  0  0  0  0  0  0  0  0  0  0  0
   20.3000  -20.1600    0.0000 C   0  0  0  0  0  0  0  0  0  0  0  0
   21.7000  -20.1600    0.0000 N   0  0  0  0  0  0  0  0  0  0  0  0
   19.6700  -21.4200    0.0000 O   0  0  0  0  0  0  0  0  0  0  0  0
   22.4000  -21.3500    0.0000 C   0  0  0  0  0  0  0  0  0  0  0  0
   21.7000  -22.5400    0.0000 C   0  0  0  0  0  0  0  0  0  0  0  0
   22.4000  -23.7300    0.0000 C   0  0  0  0  0  0  0  0  0  0  0  0
   23.8000  -23.7300    0.0000 C   0  0  0  0  0  0  0  0  0  0  0  0
   24.4300  -22.6100    0.0000 C   0  0  0  0  0  0  0  0  0  0  0  0
   23.7300  -21.3500    0.0000 C   0  0  0  0  0  0  0  0  0  0  0  0
   15.8200  -20.1600    0.0000 C   0  0  0  0  0  0  0  0  0  0  0  0
   15.0500  -21.2800    0.0000 C   0  0  0  0  0  0  0  0  0  0  0  0
   15.6800  -22.6100    0.0000 C   0  0  0  0  0  0  0  0  0  0  0  0
   17.0800  -22.6100    0.0000 C   0  0  0  0  0  0  0  0  0  0  0  0
   17.8500  -21.4200    0.0000 C   0  0  0  0  0  0  0  0  0  0  0  0
   26.4600  -11.6900    0.0000 Ca  0  0  0  0  0 15  0  0  0  0  0  0
   27.7200  -18.1300    0.0000 C   0  0  0  0  0  0  0  0  0  0  0  0
   28.9324  -18.8300    0.0000 C   0  0  0  0  0  0  0  0  0  0  0  0
   30.1279  -18.1396    0.0000 C   0  0  0  0  0  0  0  0  0  0  0  0
   28.9325  -20.2298    0.0000 O   0  0  0  0  0  0  0  0  0  0  0  0
   31.3153  -18.8251    0.0000 O   0  0  0  0  0  0  0  0  0  0  0  0
   18.0600  -19.0400    0.0000 C   0  0  0  0  0  0  0  0  0  0  0  0
   19.4600  -19.0400    0.0000 C   0  0  0  0  0  0  0  0  0  0  0  0
   19.8800  -17.7100    0.0000 C   0  0  0  0  0  0  0  0  0  0  0  0
   18.7600  -16.9400    0.0000 N   0  0  0  0  0  0  0  0  0  0  0  0
   17.5700  -17.7100    0.0000 C   0  0  0  0  0  0  0  0  0  0  0  0
   16.3100  -17.2900    0.0000 C   0  0  0  0  0  0  0  0  0  0  0  0
   16.0300  -15.8900    0.0000 C   0  0  0  0  0  0  0  0  0  0  0  0
   14.6300  -15.4700    0.0000 C   0  0  0  0  0  0  0  0  0  0  0  0
   13.6500  -16.3800    0.0000 C   0  0  0  0  0  0  0  0  0  0  0  0
   13.9300  -17.7800    0.0000 C   0  0  0  0  0  0  0  0  0  0  0  0
   15.2600  -18.2000    0.0000 C   0  0  0  0  0  0  0  0  0  0  0  0
   12.2500  -15.9600    0.0000 F   0  0  0  0  0  0  0  0  0  0  0  0
   18.7600  -15.5400    0.0000 C   0  0  0  0  0  0  0  0  0  0  0  0
   19.9500  -14.8400    0.0000 C   0  0  0  0  0  0  0  0  0  0  0  0
   19.9500  -13.4400    0.0000 C   0  0  0  0  0  0  0  0  0  0  0  0
   21.2100  -12.7400    0.0000 O   0  0  0  0  0  0  0  0  0  0  0  0
   18.7600  -12.7400    0.0000 C   0  0  0  0  0  0  0  0  0  0  0  0
   18.7600  -11.3400    0.0000 C   0  0  0  0  0  0  0  0  0  0  0  0
   19.9500  -10.6400    0.0000 C   0  0  0  0  0  0  0  0  0  0  0  0
   21.3500  -10.6400    0.0000 C   0  0  0  0  0  0  0  0  0  0  0  0
   22.0500  -11.8300    0.0000 O   0  0  0  0  0  0  0  0  0  0  0  0
   22.0500   -9.3800    0.0000 O   0  0  0  0  0  0  0  0  0  0  0  0
   17.5700  -10.6400    0.0000 O   0  0  0  0  0  0  0  0  0  0  0  0
   21.2100  -17.2900    0.0000 C   0  0  0  0  0  0  0  0  0  0  0  0
   22.2600  -18.2000    0.0000 C   0  0  0  0  0  0  0  0  0  0  0  0
   21.4900  -15.8900    0.0000 C   0  0  0  0  0  0  0  0  0  0  0  0
   20.3000  -20.1600    0.0000 C   0  0  0  0  0  0  0  0  0  0  0  0
   21.7000  -20.1600    0.0000 N   0  0  0  0  0  0  0  0  0  0  0  0
   22.4000  -21.3500    0.0000 C   0  0  0  0  0  0  0  0  0  0  0  0
   21.7000  -22.5400    0.0000 C   0  0  0  0  0  0  0  0  0  0  0  0
   22.4000  -23.7300    0.0000 C   0  0  0  0  0  0  0  0  0  0  0  0
   23.8000  -23.7300    0.0000 C   0  0  0  0  0  0  0  0  0  0  0  0
   24.4300  -22.6100    0.0000 C   0  0  0  0  0  0  0  0  0  0  0  0
   23.7300  -21.3500    0.0000 C   0  0  0  0  0  0  0  0  0  0  0  0
   19.6700  -21.4200    0.0000 O   0  0  0  0  0  0  0  0  0  0  0  0
   17.2200  -20.1600    0.0000 C   0  0  0  0  0  0  0  0  0  0  0  0
   15.8200  -20.1600    0.0000 C   0  0  0  0  0  0  0  0  0  0  0  0
   15.0500  -21.2800    0.0000 C   0  0  0  0  0  0  0  0  0  0  0  0
   15.6800  -22.6100    0.0000 C   0  0  0  0  0  0  0  0  0  0  0  0
   17.0800  -22.6100    0.0000 C   0  0  0  0  0  0  0  0  0  0  0  0
   17.8500  -21.4200    0.0000 C   0  0  0  0  0  0  0  0  0  0  0  0
  1  2  2  0
  1  3  1  0
  1  4  1  0
  2  5  1  0
  3  6  2  0
  4  7  1  0
  4  8  2  0
  4  9  2  0
  5 10  2  0
  6 10  1  0
 11 12  1  0
 11 13  1  0
 11 14  1  0
 12 15  2  0
 12 16  1  0
 13 17  2  0
 13 18  1  0
 14 19  2  0
 14 20  1  0
 15 21  1  0
 15 22  1  0
 16 23  1  0
 16 24  2  0
 17 25  1  0
 18 26  1  0
 18 27  2  0
 19 28  1  0
 19 29  1  0
 20 30  2  0
 22 31  1  0
 23 32  1  0
 26 33  1  0
 28 34  2  0
 31 35  1  0
 32 36  1  0
 35 37  1  0
 37 38  1  0
 17 21  1  0
 30 34  1  0
 39 40  1  0
 40 41  2  0
 41 42  1  0
 42 43  1  0
 39 43  2  0
 39 44  1  0
 41 45  1  0
 43 46  1  0
 42 47  1  0
 47 48  1  0
 49 48  1  0
 49 50  1  6
 49 51  1  0
 51 52  1  0
 52 53  1  0
 52 54  1  1
 53 55  1  0
 55 56  1  0
 55 57  2  0
 46 58  2  0
 58 59  1  0
 59 60  2  0
 60 61  1  0
 61 62  2  0
 46 62  1  0
 45 63  1  0
 45 64  1  0
 60 65  1  0
 40 66  1  0
 66 67  1  0
 66 68  2  0
 67 69  1  0
 69 70  2  0
 70 71  1  0
 71 72  2  0
 72 73  1  0
 73 74  2  0
 69 74  1  0
 44 75  2  0
 75 76  1  0
 76 77  2  0
 77 78  1  0
 78 79  2  0
 44 79  1  0
 82 83  1  0
 83 84  2  0
 84 85  1  0
 85 86  1  0
 82 86  2  0
 82117  1  0
 84105  1  0
 86 87  1  0
 85 94  1  0
 94 95  1  0
 96 95  1  0
 96 97  1  6
 96 98  1  0
 98 99  1  0
 99100  1  0
 99104  1  1
100101  1  0
101102  1  0
101103  2  0
 87 88  2  0
 88 89  1  0
 89 90  2  0
 90 91  1  0
 91 92  2  0
 87 92  1  0
105106  1  0
105107  1  0
 90 93  1  0
 83108  1  0
108109  1  0
108116  2  0
109110  1  0
110111  2  0
111112  1  0
112113  2  0
113114  1  0
114115  2  0
110115  1  0
117118  2  0
118119  1  0
119120  2  0
120121  1  0
121122  2  0
117122  1  0
125126  1  0
126127  2  0
127128  1  0
128129  1  0
125129  2  0
125130  1  0
127131  1  0
129132  1  0
128133  1  0
133134  1  0
135134  1  0
135136  1  6
135137  1  0
137138  1  0
138139  1  0
138140  1  1
139141  1  0
141142  1  0
141143  2  0
132144  2  0
144145  1  0
145146  2  0
146147  1  0
147148  2  0
132148  1  0
131149  1  0
131150  1  0
146151  1  0
126152  1  0
152153  1  0
152154  2  0
153155  1  0
155156  2  0
156157  1  0
157158  2  0
158159  1  0
159160  2  0
155160  1  0
130161  2  0
161162  1  0
162163  2  0
163164  1  0
164165  2  0
130165  1  0
167168  1  0
168169  2  0
169170  1  0
170171  1  0
167171  2  0
167202  1  0
169190  1  0
171172  1  0
170179  1  0
179180  1  0
181180  1  0
181182  1  6
181183  1  0
183184  1  0
184185  1  0
184189  1  1
185186  1  0
186187  1  0
186188  2  0
172173  2  0
173174  1  0
174175  2  0
175176  1  0
176177  2  0
172177  1  0
190191  1  0
190192  1  0
175178  1  0
168193  1  0
193194  1  0
193201  2  0
194195  1  0
195196  2  0
196197  1  0
197198  2  0
198199  1  0
199200  2  0
195200  1  0
202203  2  0
203204  1  0
204205  2  0
205206  1  0
206207  2  0
202207  1  0
250251  1  0
251252  1  0
251253  1  0
252254  1  0
208209  1  0
209210  2  0
210211  1  0
211212  1  0
208212  2  0
208213  1  0
210214  1  0
212215  1  0
211216  1  0
216217  1  0
218217  1  0
218219  1  6
218220  1  0
220221  1  0
221222  1  0
221223  1  1
222224  1  0
224225  1  0
224226  2  0
215227  2  0
227228  1  0
228229  2  0
229230  1  0
230231  2  0
215231  1  0
214232  1  0
214233  1  0
229234  1  0
209235  1  0
235236  1  0
235237  2  0
236238  1  0
238239  2  0
239240  1  0
240241  2  0
241242  1  0
242243  2  0
238243  1  0
213244  2  0
244245  1  0
245246  2  0
246247  1  0
247248  2  0
213248  1  0
255256  1  0
256257  2  0
257258  1  0
258259  1  0
255259  2  0
255290  1  0
257278  1  0
259260  1  0
258267  1  0
267268  1  0
269268  1  0
269270  1  6
269271  1  0
271272  1  0
272273  1  0
272277  1  1
273274  1  0
274275  1  0
274276  2  0
260261  2  0
261262  1  0
262263  2  0
263264  1  0
264265  2  0
260265  1  0
278279  1  0
278280  1  0
263266  1  0
256281  1  0
281282  1  0
281289  2  0
282283  1  0
283284  2  0
284285  1  0
285286  2  0
286287  1  0
287288  2  0
283288  1  0
290291  2  0
291292  1  0
292293  2  0
293294  1  0
294295  2  0
290295  1  0
M  CHG  8  56  -1  80   2 102  -1 142  -1 166   2 187  -1 225  -1 249   2
M  CHG  1 275  -1
M  END
