 
     RDKit          2D

 32 35  0  0  1  0  0  0  0  0999 V2000
   18.2278  -20.1917    0.0000 C   0  0  0  0  0  0  0  0  0  0  0  0
   18.2278  -21.5939    0.0000 C   0  0  0  0  0  0  0  0  0  0  0  0
   19.3495  -22.2249    0.0000 C   0  0  0  0  0  0  0  0  0  0  0  0
   20.5414  -21.5939    0.0000 C   0  0  0  0  0  0  0  0  0  0  0  0
   20.5414  -20.1917    0.0000 C   0  0  0  0  0  0  0  0  0  0  0  0
   19.3495  -19.4906    0.0000 C   0  0  0  0  0  0  0  0  0  0  0  0
   21.7333  -22.2249    0.0000 C   0  0  0  0  0  0  0  0  0  0  0  0
   22.9252  -21.5939    0.0000 C   0  0  0  0  0  0  0  0  0  0  0  0
   22.9252  -20.1917    0.0000 C   0  0  0  0  0  0  0  0  0  0  0  0
   21.7333  -19.4906    0.0000 C   0  0  0  0  0  0  0  0  0  0  0  0
   24.1170  -19.4906    0.0000 C   0  0  0  0  0  0  0  0  0  0  0  0
   24.1170  -18.1585    0.0000 C   0  0  0  0  0  0  0  0  0  0  0  0
   22.9252  -17.4574    0.0000 C   0  0  0  0  0  0  0  0  0  0  0  0
   21.7333  -18.1585    0.0000 C   0  0  0  0  0  0  0  0  0  0  0  0
   26.4307  -19.4906    0.0000 C   0  0  0  0  0  0  0  0  0  0  0  0
   26.4307  -18.1585    0.0000 C   0  0  0  0  0  0  0  0  0  0  0  0
   25.3089  -17.4574    0.0000 C   0  0  0  0  0  0  0  0  0  0  0  0
   17.0359  -22.2249    0.0000 O   0  0  0  0  0  0  0  0  0  0  0  0
   20.5414  -18.8596    0.0000 C   0  0  0  0  0  0  0  0  0  0  0  0
   20.5414  -17.4574    0.0000 O   0  0  0  0  0  0  0  0  0  0  0  0
   24.1170  -16.8264    0.0000 C   0  0  0  0  0  0  0  0  0  0  0  0
   25.3089  -15.7748    0.0000 C   0  0  0  0  0  0  0  0  0  0  0  0
   26.4307  -16.8264    0.0000 O   0  0  0  0  0  0  0  0  0  0  0  0
   26.5008  -15.0737    0.0000 C   0  0  0  0  0  0  0  0  0  0  0  0
   24.1170  -15.0737    0.0000 O   0  0  0  0  0  0  0  0  0  0  0  0
   27.6225  -15.7748    0.0000 O   0  0  0  0  0  0  0  0  0  0  0  0
   28.8845  -15.0737    0.0000 C   0  0  0  0  0  0  0  0  0  0  0  0
   30.0764  -15.7748    0.0000 C   0  0  0  0  0  0  0  0  0  0  0  0
   28.8845  -13.6715    0.0000 O   0  0  0  0  0  0  0  0  0  0  0  0
   31.2907  -16.4759    0.0000 C   0  0  0  0  0  0  0  0  0  0  0  0
   29.3704  -16.9863    0.0000 C   0  0  0  0  0  0  0  0  0  0  0  0
   30.7824  -14.5633    0.0000 C   0  0  0  0  0  0  0  0  0  0  0  0
  1  2  1  0
  2  3  1  0
  3  4  2  0
  4  5  1  0
  5  6  1  0
  1  6  2  0
  4  7  1  0
  7  8  1  0
  9  8  1  6
  9 10  1  0
  5 10  1  0
  9 11  1  0
 11 12  1  0
 12 13  1  0
 13 14  1  0
 10 14  1  1
 11 15  1  1
 15 16  1  0
 16 17  1  0
 12 17  1  0
  2 18  2  0
  5 19  1  1
 14 20  1  1
 12 21  1  1
 17 22  1  0
 17 23  1  6
 22 24  1  0
 22 25  2  0
 24 26  1  0
 26 27  1  0
 27 28  1  0
 27 29  2  0
 28 30  1  0
 28 31  1  0
 28 32  1  0
M  END
