 
     RDKit          2D

 49 52  0  0  1  0  0  0  0  0999 V2000
   11.2700  -19.9500    0.0000 C   0  0  0  0  0  0  0  0  0  0  0  0
   11.2700  -21.3500    0.0000 C   0  0  0  0  0  0  0  0  0  0  0  0
   12.3900  -21.9100    0.0000 C   0  0  0  0  0  0  0  0  0  0  0  0
   13.5800  -21.3500    0.0000 C   0  0  0  0  0  0  0  0  0  0  0  0
   13.5800  -19.9500    0.0000 C   0  0  0  0  0  0  0  0  0  0  0  0
   12.3900  -19.2500    0.0000 C   0  0  0  0  0  0  0  0  0  0  0  0
   14.7700  -21.9100    0.0000 C   0  0  0  0  0  0  0  0  0  0  0  0
   15.9600  -21.3500    0.0000 C   0  0  0  0  0  0  0  0  0  0  0  0
   15.9600  -19.9500    0.0000 C   0  0  0  0  0  0  0  0  0  0  0  0
   14.7700  -19.2500    0.0000 C   0  0  0  0  0  0  0  0  0  0  0  0
   17.1500  -19.2500    0.0000 C   0  0  0  0  0  0  0  0  0  0  0  0
   17.1500  -17.9200    0.0000 C   0  0  0  0  0  0  0  0  0  0  0  0
   15.9600  -17.2200    0.0000 C   0  0  0  0  0  0  0  0  0  0  0  0
   14.7700  -17.9200    0.0000 C   0  0  0  0  0  0  0  0  0  0  0  0
   19.4600  -19.2500    0.0000 C   0  0  0  0  0  0  0  0  0  0  0  0
   19.4600  -17.9200    0.0000 C   0  0  0  0  0  0  0  0  0  0  0  0
   18.3400  -17.2200    0.0000 C   0  0  0  0  0  0  0  0  0  0  0  0
   10.0800  -21.9100    0.0000 O   0  0  0  0  0  0  0  0  0  0  0  0
   13.5800  -18.6200    0.0000 C   0  0  0  0  0  0  0  0  0  0  0  0
   13.5800  -17.2200    0.0000 O   0  0  0  0  0  0  0  0  0  0  0  0
   17.1500  -16.5900    0.0000 C   0  0  0  0  0  0  0  0  0  0  0  0
   18.3400  -15.5400    0.0000 C   0  0  0  0  0  0  0  0  0  0  0  0
   19.4600  -16.5900    0.0000 O   0  0  0  0  0  0  0  0  0  0  0  0
   19.5300  -14.8400    0.0000 C   0  0  0  0  0  0  0  0  0  0  0  0
   17.1500  -14.8400    0.0000 O   0  0  0  0  0  0  0  0  0  0  0  0
   20.6500  -15.5400    0.0000 O   0  0  0  0  0  0  0  0  0  0  0  0
   21.9800  -14.8400    0.0000 C   0  0  0  0  0  0  0  0  0  0  0  0
   21.9800  -13.4400    0.0000 O   0  0  0  0  0  0  0  0  0  0  0  0
   23.2400  -15.5400    0.0000 C   0  0  0  0  0  0  0  0  0  0  0  0
   25.6200  -15.5400    0.0000 C   0  0  0  0  0  0  0  0  0  0  0  0
   24.4300  -14.8400    0.0000 O   0  0  0  0  0  0  0  0  0  0  0  0
   25.6200  -16.9400    0.0000 O   0  0  0  0  0  0  0  0  0  0  0  0
   26.8324  -14.8400    0.0000 C   0  0  0  0  0  0  0  0  0  0  0  0
   28.0449  -15.5400    0.0000 C   0  0  0  0  0  0  0  0  0  0  0  0
   29.2573  -14.8400    0.0000 C   0  0  0  0  0  0  0  0  0  0  0  0
   30.4697  -15.5400    0.0000 C   0  0  0  0  0  0  0  0  0  0  0  0
   31.6822  -14.8400    0.0000 C   0  0  0  0  0  0  0  0  0  0  0  0
   32.8946  -15.5400    0.0000 C   0  0  0  0  0  0  0  0  0  0  0  0
   34.1070  -14.8400    0.0000 C   0  0  0  0  0  0  0  0  0  0  0  0
   35.3195  -15.5400    0.0000 C   0  0  0  0  0  0  0  0  0  0  0  0
   36.5319  -14.8400    0.0000 C   0  0  0  0  0  0  0  0  0  0  0  0
   37.7444  -15.5400    0.0000 C   0  0  0  0  0  0  0  0  0  0  0  0
   38.9568  -14.8400    0.0000 C   0  0  0  0  0  0  0  0  0  0  0  0
   40.1692  -15.5400    0.0000 C   0  0  0  0  0  0  0  0  0  0  0  0
   41.3817  -14.8400    0.0000 C   0  0  0  0  0  0  0  0  0  0  0  0
   42.5941  -15.5400    0.0000 C   0  0  0  0  0  0  0  0  0  0  0  0
   43.8065  -14.8400    0.0000 C   0  0  0  0  0  0  0  0  0  0  0  0
   45.0190  -15.5400    0.0000 C   0  0  0  0  0  0  0  0  0  0  0  0
   46.2314  -14.8400    0.0000 C   0  0  0  0  0  0  0  0  0  0  0  0
  1  2  1  0
  2  3  1  0
  3  4  2  0
  4  5  1  0
  5  6  1  0
  1  6  2  0
  4  7  1  0
  7  8  1  0
  9  8  1  6
  9 10  1  0
  5 10  1  0
  9 11  1  0
 11 12  1  0
 12 13  1  0
 13 14  1  0
 10 14  1  1
 11 15  1  1
 15 16  1  0
 16 17  1  0
 12 17  1  0
  2 18  2  0
  5 19  1  1
 14 20  1  1
 12 21  1  1
 17 22  1  0
 17 23  1  6
 22 24  1  0
 22 25  2  0
 24 26  1  0
 26 27  1  0
 27 28  2  0
 27 29  1  0
 30 31  1  0
 29 31  1  0
 30 32  2  0
 30 33  1  0
 33 34  1  0
 34 35  1  0
 35 36  1  0
 36 37  1  0
 37 38  1  0
 38 39  1  0
 39 40  1  0
 40 41  1  0
 41 42  1  0
 42 43  1  0
 43 44  1  0
 44 45  1  0
 45 46  1  0
 46 47  1  0
 47 48  1  0
 48 49  1  0
M  END
