 
     RDKit          2D

 39 42  0  0  1  0  0  0  0  0999 V2000
   18.2000  -20.1600    0.0000 C   0  0  0  0  0  0  0  0  0  0  0  0
   18.2000  -21.5600    0.0000 C   0  0  0  0  0  0  0  0  0  0  0  0
   19.3200  -22.1900    0.0000 C   0  0  0  0  0  0  0  0  0  0  0  0
   20.5100  -21.5600    0.0000 C   0  0  0  0  0  0  0  0  0  0  0  0
   20.5100  -20.1600    0.0000 C   0  0  0  0  0  0  0  0  0  0  0  0
   19.3200  -19.4600    0.0000 C   0  0  0  0  0  0  0  0  0  0  0  0
   21.7000  -22.1900    0.0000 C   0  0  0  0  0  0  0  0  0  0  0  0
   22.9600  -21.5600    0.0000 C   0  0  0  0  0  0  0  0  0  0  0  0
   22.9600  -20.1600    0.0000 C   0  0  0  0  0  0  0  0  0  0  0  0
   21.7000  -19.4600    0.0000 C   0  0  0  0  0  0  0  0  0  0  0  0
   24.1500  -19.4600    0.0000 C   0  0  0  0  0  0  0  0  0  0  0  0
   24.1500  -18.1300    0.0000 C   0  0  0  0  0  0  0  0  0  0  0  0
   22.9600  -17.4300    0.0000 C   0  0  0  0  0  0  0  0  0  0  0  0
   21.7000  -18.1300    0.0000 C   0  0  0  0  0  0  0  0  0  0  0  0
   26.4600  -19.4600    0.0000 C   0  0  0  0  0  0  0  0  0  0  0  0
   26.4600  -18.1300    0.0000 C   0  0  0  0  0  0  0  0  0  0  0  0
   25.3400  -17.4300    0.0000 C   0  0  0  0  0  0  0  0  0  0  0  0
   17.0100  -22.1900    0.0000 O   0  0  0  0  0  0  0  0  0  0  0  0
   20.5100  -18.8300    0.0000 C   0  0  0  0  0  0  0  0  0  0  0  0
   20.5100  -17.4300    0.0000 O   0  0  0  0  0  0  0  0  0  0  0  0
   24.1500  -16.8000    0.0000 C   0  0  0  0  0  0  0  0  0  0  0  0
   25.3400  -15.7500    0.0000 C   0  0  0  0  0  0  0  0  0  0  0  0
   26.4600  -16.8000    0.0000 O   0  0  0  0  0  0  0  0  0  0  0  0
   26.5300  -15.0500    0.0000 C   0  0  0  0  0  0  0  0  0  0  0  0
   24.1500  -15.0500    0.0000 O   0  0  0  0  0  0  0  0  0  0  0  0
   27.6500  -15.7500    0.0000 O   0  0  0  0  0  0  0  0  0  0  0  0
   28.9100  -15.0500    0.0000 C   0  0  0  0  0  0  0  0  0  0  0  0
   28.9100  -13.6500    0.0000 O   0  0  0  0  0  0  0  0  0  0  0  0
   30.1166  -15.7600    0.0000 C   0  0  0  0  0  0  0  0  0  0  0  0
   30.1050  -17.1500    0.0000 C   0  0  0  0  0  0  0  0  0  0  0  0
   31.3116  -17.8601    0.0000 C   0  0  0  0  0  0  0  0  0  0  0  0
   32.5298  -17.1702    0.0000 C   0  0  0  0  0  0  0  0  0  0  0  0
   32.5414  -15.7802    0.0000 C   0  0  0  0  0  0  0  0  0  0  0  0
   31.3348  -15.0701    0.0000 C   0  0  0  0  0  0  0  0  0  0  0  0
   31.3116  -19.2601    0.0000 S   0  0  0  0  0  0  0  0  0  0  0  0
   31.3116  -20.6601    0.0000 O   0  0  0  0  0  0  0  0  0  0  0  0
   32.6900  -19.2599    0.0000 O   0  0  0  0  0  0  0  0  0  0  0  0
   29.8900  -19.2602    0.0000 O   0  0  0  0  0  0  0  0  0  0  0  0
   28.0700  -22.6800    0.0000 Na  0  0  0  0  0 15  0  0  0  0  0  0
  1  2  1  0
  2  3  1  0
  3  4  2  0
  4  5  1  0
  5  6  1  0
  1  6  2  0
  4  7  1  0
  7  8  1  0
  9  8  1  6
  9 10  1  0
  5 10  1  0
  9 11  1  0
 11 12  1  0
 12 13  1  0
 13 14  1  0
 10 14  1  1
 11 15  1  1
 15 16  1  0
 16 17  1  0
 12 17  1  0
  2 18  2  0
  5 19  1  1
 14 20  1  1
 12 21  1  1
 17 22  1  0
 17 23  1  6
 22 24  1  0
 22 25  2  0
 24 26  1  0
 26 27  1  0
 27 28  2  0
 27 29  1  0
 29 30  2  0
 30 31  1  0
 31 32  2  0
 32 33  1  0
 33 34  2  0
 29 34  1  0
 31 35  1  0
 35 36  1  0
 35 37  2  0
 35 38  2  0
M  CHG  2  36  -1  39   1
M  END
