 
     RDKit          2D

 17 18  0  0  1  0  0  0  0  0999 V2000
   14.9952  -16.1921    0.0000 N   0  0  0  0  0  0  0  0  0  0  0  0
   14.9952  -17.5884    0.0000 C   0  0  0  0  0  0  0  0  0  0  0  0
   16.2518  -18.2865    0.0000 N   0  0  0  0  0  0  0  0  0  0  0  0
   16.2518  -15.4940    0.0000 C   0  0  0  0  0  0  0  0  0  0  0  0
   17.4387  -16.1921    0.0000 C   0  0  0  0  0  0  0  0  0  0  0  0
   17.4387  -17.5884    0.0000 C   0  0  0  0  0  0  0  0  0  0  0  0
   18.6255  -18.2865    0.0000 N   0  0  0  0  0  0  0  0  0  0  0  0
   19.8821  -17.5884    0.0000 C   0  0  0  0  0  0  0  0  0  0  0  0
   19.8821  -16.1921    0.0000 C   0  0  0  0  0  0  0  0  0  0  0  0
   18.6255  -15.4940    0.0000 N   0  0  0  0  0  0  0  0  0  0  0  0
   21.0689  -15.4940    0.0000 C   0  0  0  0  0  0  0  0  0  0  0  0
   22.2558  -16.1921    0.0000 C   0  0  0  0  0  0  0  0  0  0  0  0
   23.5124  -15.4940    0.0000 C   0  0  0  0  0  0  0  0  0  0  0  0
   22.2558  -17.5884    0.0000 O   0  0  0  0  0  0  0  0  0  0  0  0
   21.0689  -14.0977    0.0000 O   0  0  0  0  0  0  0  0  0  0  0  0
   13.8084  -18.2865    0.0000 N   0  0  0  0  0  0  0  0  0  0  0  0
   16.2518  -14.0977    0.0000 O   0  0  0  0  0  0  0  0  0  0  0  0
  9  8  1  1
  9 10  1  0
 10  5  1  0
  4  1  1  0
  9 11  1  0
 11 12  1  0
 12 13  1  6
  1  2  1  0
 12 14  1  0
  2  3  2  0
 11 15  1  1
  3  6  1  0
  2 16  1  0
  5  4  1  0
  4 17  2  0
  5  6  2  0
  6  7  1  0
  7  8  1  0
M  END
