 
     RDKit          2D

 78 83  0  0  0  0  0  0  0  0999 V2000
   17.7390  -20.3518    0.0000 C   0  0  0  0  0  0  0  0  0  0  0  0
   17.7390  -18.9454    0.0000 C   0  0  0  0  0  0  0  0  0  0  0  0
   18.9597  -21.0586    0.0000 C   0  0  0  0  0  0  0  0  0  0  0  0
   16.5111  -21.0586    0.0000 C   0  0  0  0  0  0  0  0  0  0  0  0
   18.9597  -18.2528    0.0000 C   0  0  0  0  0  0  0  0  0  0  0  0
   16.5181  -18.2315    0.0000 C   0  0  0  0  0  0  0  0  0  0  0  0
   20.1663  -20.3518    0.0000 C   0  0  0  0  0  0  0  0  0  0  0  0
   15.2831  -20.3518    0.0000 C   0  0  0  0  0  0  0  0  0  0  0  0
   20.1663  -18.9454    0.0000 C   0  0  0  0  0  0  0  0  0  0  0  0
   18.9597  -16.8607    0.0000 O   0  0  0  0  0  0  0  0  0  0  0  0
   15.2901  -18.9311    0.0000 C   0  0  0  0  0  0  0  0  0  0  0  0
   21.3656  -18.2528    0.0000 C   0  0  0  0  0  0  0  0  0  0  0  0
   22.5720  -18.9454    0.0000 O   0  0  0  0  0  0  0  0  0  0  0  0
   21.3656  -16.8607    0.0000 O   0  0  0  0  0  0  0  0  0  0  0  0
   10.9900  -13.7200    0.0000 C   0  0  0  0  0  0  0  0  0  0  0  0
    9.8000  -14.4200    0.0000 C   0  0  0  0  0  0  0  0  0  0  0  0
   10.9900  -12.3200    0.0000 C   0  0  0  0  0  0  0  0  0  0  0  0
   12.1800  -14.4200    0.0000 C   0  0  0  0  0  0  0  0  0  0  0  0
    8.5400  -13.7200    0.0000 C   0  0  0  0  0  0  0  0  0  0  0  0
    9.8000  -11.6200    0.0000 C   0  0  0  0  0  0  0  0  0  0  0  0
   13.3700  -13.7200    0.0000 C   0  0  0  0  0  0  0  0  0  0  0  0
   12.1800  -15.8200    0.0000 O   0  0  0  0  0  0  0  0  0  0  0  0
    8.5400  -12.3200    0.0000 C   0  0  0  0  0  0  0  0  0  0  0  0
    7.3500  -14.4200    0.0000 C   0  0  0  0  0  0  0  0  0  0  0  0
   14.6300  -14.4200    0.0000 N   0  0  0  0  0  0  0  0  0  0  0  0
    7.3500  -11.6200    0.0000 O   0  0  0  0  0  0  0  0  0  0  0  0
    6.0900  -13.7200    0.0000 O   0  0  0  0  0  0  0  0  0  0  0  0
   15.8200  -13.7200    0.0000 C   0  0  0  0  0  0  0  0  0  0  0  0
   17.0100  -14.4200    0.0000 C   0  0  0  0  0  0  0  0  0  0  0  0
   18.2700  -13.7200    0.0000 C   0  0  0  0  0  0  0  0  0  0  0  0
   19.4600  -14.4200    0.0000 C   0  0  0  0  0  0  0  0  0  0  0  0
   20.6500  -13.7200    0.0000 C   0  0  0  0  0  0  0  0  0  0  0  0
   21.8400  -14.4200    0.0000 C   0  0  0  0  0  0  0  0  0  0  0  0
   23.1000  -13.7900    0.0000 O   0  0  0  0  0  0  0  0  0  0  0  0
   24.2900  -14.4900    0.0000 C   0  0  0  0  0  0  0  0  0  0  0  0
   25.4800  -13.7900    0.0000 C   0  0  0  0  0  0  0  0  0  0  0  0
   26.7400  -14.4900    0.0000 C   0  0  0  0  0  0  0  0  0  0  0  0
   27.9300  -13.7900    0.0000 C   0  0  0  0  0  0  0  0  0  0  0  0
   29.1200  -14.4900    0.0000 C   0  0  0  0  0  0  0  0  0  0  0  0
   30.3800  -13.7900    0.0000 C   0  0  0  0  0  0  0  0  0  0  0  0
   29.1200  -15.8900    0.0000 C   0  0  0  0  0  0  0  0  0  0  0  0
   31.5700  -14.4900    0.0000 C   0  0  0  0  0  0  0  0  0  0  0  0
   30.3100  -16.5900    0.0000 C   0  0  0  0  0  0  0  0  0  0  0  0
   31.5700  -15.8900    0.0000 C   0  0  0  0  0  0  0  0  0  0  0  0
   19.6000  -28.4200    0.0000 C   0  0  0  0  0  0  0  0  0  0  0  0
   19.6000  -29.7500    0.0000 C   0  0  0  0  0  0  0  0  0  0  0  0
   20.7900  -30.4500    0.0000 C   0  0  0  0  0  0  0  0  0  0  0  0
   21.9100  -29.7500    0.0000 C   0  0  0  0  0  0  0  0  0  0  0  0
   21.9100  -28.4200    0.0000 C   0  0  0  0  0  0  0  0  0  0  0  0
   20.7900  -27.7200    0.0000 C   0  0  0  0  0  0  0  0  0  0  0  0
   23.1000  -30.4500    0.0000 C   0  0  0  0  0  0  0  0  0  0  0  0
   24.3600  -29.7500    0.0000 C   0  0  0  0  0  0  0  0  0  0  0  0
   24.3600  -28.4200    0.0000 C   0  0  0  0  0  0  0  0  0  0  0  0
   23.1000  -27.7200    0.0000 C   0  0  0  0  0  0  0  0  0  0  0  0
   25.4100  -27.7200    0.0000 C   0  0  0  0  0  0  0  0  0  0  0  0
   25.4100  -26.3900    0.0000 C   0  0  0  0  0  0  0  0  0  0  0  0
   24.3600  -25.6900    0.0000 C   0  0  0  0  0  0  0  0  0  0  0  0
   23.1000  -26.3900    0.0000 C   0  0  0  0  0  0  0  0  0  0  0  0
   27.7200  -27.7200    0.0000 C   0  0  0  0  0  0  0  0  0  0  0  0
   27.7200  -26.3900    0.0000 C   0  0  0  0  0  0  0  0  0  0  0  0
   26.5300  -25.6900    0.0000 C   0  0  0  0  0  0  0  0  0  0  0  0
   18.4100  -30.4500    0.0000 O   0  0  0  0  0  0  0  0  0  0  0  0
   21.9100  -27.0200    0.0000 C   0  0  0  0  0  0  0  0  0  0  0  0
   23.1000  -29.0500    0.0000 F   0  0  0  0  0  0  0  0  0  0  0  0
   21.9100  -25.6900    0.0000 O   0  0  0  0  0  0  0  0  0  0  0  0
   25.4100  -24.9900    0.0000 C   0  0  0  0  0  0  0  0  0  0  0  0
   27.9300  -24.7800    0.0000 O   0  0  0  0  0  0  0  0  0  0  0  0
   29.1200  -26.3900    0.0000 C   0  0  0  0  0  0  0  0  0  0  0  0
   23.1000  -31.8500    0.0000 F   0  0  0  0  0  0  0  0  0  0  0  0
   26.5300  -24.2900    0.0000 C   0  0  0  0  0  0  0  0  0  0  0  0
   27.7900  -23.5900    0.0000 O   0  0  0  0  0  0  0  0  0  0  0  0
   25.2700  -23.5900    0.0000 S   0  0  0  0  0  0  0  0  0  0  0  0
   24.0800  -24.2900    0.0000 C   0  0  0  0  0  0  0  0  0  0  0  0
   22.8900  -23.5900    0.0000 F   0  0  0  0  0  0  0  0  0  0  0  0
   29.1200  -24.0800    0.0000 C   0  0  0  0  0  0  0  0  0  0  0  0
   30.3100  -24.7800    0.0000 C   0  0  0  0  0  0  0  0  0  0  0  0
   31.5000  -24.0800    0.0000 C   0  0  0  0  0  0  0  0  0  0  0  0
   29.1200  -22.6800    0.0000 O   0  0  0  0  0  0  0  0  0  0  0  0
  1  2  1  0
  1  3  2  0
  1  4  1  0
  2  5  2  0
  2  6  1  0
  3  7  1  0
  4  8  2  0
  5  9  1  0
  5 10  1  0
  6 11  2  0
  9 12  1  0
 12 13  1  0
 12 14  2  0
  7  9  2  0
  8 11  1  0
 15 16  2  0
 15 17  1  0
 15 18  1  0
 16 19  1  0
 17 20  2  0
 18 21  1  0
 18 22  1  0
 19 23  2  0
 19 24  1  0
 21 25  1  0
 23 26  1  0
 24 27  1  0
 25 28  1  0
 28 29  1  0
 29 30  1  0
 30 31  1  0
 31 32  1  0
 32 33  1  0
 33 34  1  0
 34 35  1  0
 35 36  1  0
 36 37  1  0
 37 38  1  0
 38 39  1  0
 39 40  2  0
 39 41  1  0
 40 42  1  0
 41 43  2  0
 42 44  2  0
 20 23  1  0
 43 44  1  0
 45 46  1  0
 46 47  1  0
 47 48  2  0
 48 49  1  0
 49 50  1  0
 45 50  2  0
 48 51  1  0
 51 52  1  0
 53 52  1  6
 53 54  1  0
 49 54  1  0
 53 55  1  0
 55 56  1  0
 56 57  1  0
 57 58  1  0
 54 58  1  0
 55 59  1  1
 59 60  1  0
 60 61  1  0
 56 61  1  0
 46 62  2  0
 49 63  1  1
 54 64  1  6
 58 65  1  1
 56 66  1  1
 61 67  1  6
 60 68  1  6
 51 69  1  6
 61 70  1  0
 70 71  2  0
 70 72  1  0
 72 73  1  0
 73 74  1  0
 75 76  1  0
 75 67  1  0
 76 77  1  0
 75 78  2  0
M  END
