1074-52-8.mol
     RDKit          2D

181183  0  0  0  0  0  0  0  0999 V2000
   -4.5053    4.6642    0.0000 C   0  0  0  0  0  0  0  0  0  0  0  0
   -4.5053    3.4374    0.0000 C   0  0  0  0  0  0  0  0  0  0  0  0
   -3.8496    5.0659    0.0000 C   0  0  0  0  0  0  0  0  0  0  0  0
   -5.1819    4.9598    0.0000 N   0  0  0  0  0  0  0  0  0  0  0  0
   -5.1819    2.8240    0.0000 C   0  0  0  0  0  0  0  0  0  0  0  0
   -3.2362    4.6642    0.0000 N   0  0  0  0  0  0  0  0  0  0  0  0
   -3.8919    5.8272    0.0000 O   0  0  0  0  0  0  0  0  0  0  0  0
   -5.9014    4.5581    0.0000 C   0  0  0  0  0  0  0  0  0  0  0  0
   -5.2242    2.0622    0.0000 C   0  0  0  0  0  0  0  0  0  0  0  0
   -5.9014    3.2466    0.0000 C   0  0  0  0  0  0  0  0  0  0  0  0
   -3.2362    3.8392    0.0000 C   0  0  0  0  0  0  0  0  0  0  0  0
   -6.5994    4.9175    0.0000 C   0  0  0  0  0  0  0  0  0  0  0  0
   -5.9014    4.0508    0.0000 O   0  0  0  0  0  0  0  0  0  0  0  0
   -5.9014    1.6604    0.0000 C   0  0  0  0  0  0  0  0  0  0  0  0
   -6.5994    2.8872    0.0000 C   0  0  0  0  0  0  0  0  0  0  0  0
   -2.5805    3.4374    0.0000 C   0  0  0  0  0  0  0  0  0  0  0  0
   -3.8919    3.5006    0.0000 C   0  0  0  0  0  0  0  0  0  0  0  0
   -6.5994    5.7425    0.0000 N   0  0  0  0  0  0  0  0  0  0  0  0
   -7.2128    4.5581    0.0000 C   0  0  0  0  0  0  0  0  0  0  0  0
   -6.5994    2.1045    0.0000 C   0  0  0  0  0  0  0  0  0  0  0  0
   -1.9033    3.7969    0.0000 N   0  0  0  0  0  0  0  0  0  0  0  0
   -2.5805    2.5701    0.0000 O   0  0  0  0  0  0  0  0  0  0  0  0
   -3.9974    2.7817    0.0000 C   0  0  0  0  0  0  0  0  0  0  0  0
   -7.3183    6.1020    0.0000 C   0  0  0  0  0  0  0  0  0  0  0  0
   -7.2128    3.7969    0.0000 C   0  0  0  0  0  0  0  0  0  0  0  0
   -7.2760    1.6604    0.0000 O   0  0  0  0  0  0  0  0  0  0  0  0
   -1.2482    3.3951    0.0000 C   0  0  0  0  0  0  0  0  0  0  0  0
   -3.2994    2.2738    0.0000 O   0  0  0  0  0  0  0  0  0  0  0  0
   -4.7169    2.3799    0.0000 O   0  0  0  0  0  0  0  0  0  0  0  0
   -7.9740    5.7425    0.0000 C   0  0  0  0  0  0  0  0  0  0  0  0
   -7.3183    6.8638    0.0000 O   0  0  0  0  0  0  0  0  0  0  0  0
   -7.8894    3.3313    0.0000 S   0  0  0  0  0  0  0  0  0  0  0  0
   -0.5925    3.7969    0.0000 C   0  0  0  0  0  0  0  0  0  0  0  0
   -1.6077    2.5278    0.0000 C   0  0  0  0  0  0  0  0  0  0  0  0
   -8.6506    6.1443    0.0000 N   0  0  0  0  0  0  0  0  0  0  0  0
   -8.0372    4.9175    0.0000 C   0  0  0  0  0  0  0  0  0  0  0  0
   -7.8894    2.5278    0.0000 C   0  0  0  0  0  0  0  0  0  0  0  0
    0.1270    3.4374    0.0000 N   0  0  0  0  0  0  0  0  0  0  0  0
   -0.5925    4.5581    0.0000 O   0  0  0  0  0  0  0  0  0  0  0  0
   -1.6500  -11.7071    0.0000 S   0  0  0  0  0  0  0  0  0  0  0  0
   -9.3063    5.7848    0.0000 C   0  0  0  0  0  0  0  0  0  0  0  0
   -8.5874    4.5581    0.0000 C   0  0  0  0  0  0  0  0  0  0  0  0
    0.1693    2.6756    0.0000 C   0  0  0  0  0  0  0  0  0  0  0  0
   21.7009  -11.7071    0.0000 S   0  0  0  0  0  0  0  0  0  0  0  0
  -10.0681    6.1443    0.0000 C   0  0  0  0  0  0  0  0  0  0  0  0
   -9.3063    5.0659    0.0000 O   0  0  0  0  0  0  0  0  0  0  0  0
   -8.1856    3.7969    0.0000 C   0  0  0  0  0  0  0  0  0  0  0  0
   -9.4124    4.5581    0.0000 C   0  0  0  0  0  0  0  0  0  0  0  0
    0.8882    2.2738    0.0000 C   0  0  0  0  0  0  0  0  0  0  0  0
   -0.4864    2.2106    0.0000 C   0  0  0  0  0  0  0  0  0  0  0  0
   24.0913   -5.7002    0.0000 C   0  0  0  0  0  0  0  0  0  0  0  0
  -10.0681    6.9693    0.0000 N   0  0  0  0  0  0  0  0  0  0  0  0
  -10.6815    5.7848    0.0000 C   0  0  0  0  0  0  0  0  0  0  0  0
    1.6077    2.7817    0.0000 N   0  0  0  0  0  0  0  0  0  0  0  0
    0.8882    1.4065    0.0000 O   0  0  0  0  0  0  0  0  0  0  0  0
   -0.5287   -0.7931    0.0000 S   0  0  0  0  0  0  0  0  0  0  0  0
   24.0913   -4.4096    0.0000 C   0  0  0  0  0  0  0  0  0  0  0  0
  -10.7447    7.3079    0.0000 C   0  0  0  0  0  0  0  0  0  0  0  0
  -10.6392    4.9598    0.0000 C   0  0  0  0  0  0  0  0  0  0  0  0
    2.4744    2.4216    0.0000 C   0  0  0  0  0  0  0  0  0  0  0  0
  -26.5025   -0.7508    0.0000 S   0  0  0  0  0  0  0  0  0  0  0  0
   22.9700   -3.7539    0.0000 N   0  0  0  0  0  0  0  0  0  0  0  0
   25.2757   -3.9024    0.0000 C   0  0  0  0  0  0  0  0  0  0  0  0
  -11.3580    6.9061    0.0000 C   0  0  0  0  0  0  0  0  0  0  0  0
  -10.7447    8.1329    0.0000 O   0  0  0  0  0  0  0  0  0  0  0  0
  -11.2949    4.5581    0.0000 C   0  0  0  0  0  0  0  0  0  0  0  0
    3.2362    2.8240    0.0000 C   0  0  0  0  0  0  0  0  0  0  0  0
    2.4744    1.5126    0.0000 C   0  0  0  0  0  0  0  0  0  0  0  0
  -26.5025    9.7191    0.0000 C   0  0  0  0  0  0  0  0  0  0  0  0
   21.8071   -4.3041    0.0000 C   0  0  0  0  0  0  0  0  0  0  0  0
   26.5025   -4.4096    0.0000 N   0  0  0  0  0  0  0  0  0  0  0  0
   25.2757   -2.8872    0.0000 O   0  0  0  0  0  0  0  0  0  0  0  0
  -12.0561    7.1600    0.0000 N   0  0  0  0  0  0  0  0  0  0  0  0
  -11.3580    6.0388    0.0000 C   0  0  0  0  0  0  0  0  0  0  0  0
  -11.2525    3.7969    0.0000 N   0  0  0  0  0  0  0  0  0  0  0  0
    3.9974    2.4216    0.0000 N   0  0  0  0  0  0  0  0  0  0  0  0
    3.2362    3.7969    0.0000 O   0  0  0  0  0  0  0  0  0  0  0  0
    1.9033    0.9415    0.0000 C   0  0  0  0  0  0  0  0  0  0  0  0
    3.3417    0.9415    0.0000 O   0  0  0  0  0  0  0  0  0  0  0  0
  -24.9163   10.6919    0.0000 C   0  0  0  0  0  0  0  0  0  0  0  0
   20.3687   -3.7962    0.0000 C   0  0  0  0  0  0  0  0  0  0  0  0
   21.8071   -5.4886    0.0000 O   0  0  0  0  0  0  0  0  0  0  0  0
  -12.6695    6.7577    0.0000 C   0  0  0  0  0  0  0  0  0  0  0  0
  -11.8021    5.4886    0.0000 O   0  0  0  0  0  0  0  0  0  0  0  0
  -11.9083    3.3951    0.0000 C   0  0  0  0  0  0  0  0  0  0  0  0
    3.9974    1.4488    0.0000 C   0  0  0  0  0  0  0  0  0  0  0  0
  -24.2606   11.0305    0.0000 C   0  0  0  0  0  0  0  0  0  0  0  0
  -25.5297   11.0305    0.0000 N   0  0  0  0  0  0  0  0  0  0  0  0
   20.2840   -2.8234    0.0000 N   0  0  0  0  0  0  0  0  0  0  0  0
   19.2051   -4.5581    0.0000 C   0  0  0  0  0  0  0  0  0  0  0  0
  -13.3466    7.1177    0.0000 C   0  0  0  0  0  0  0  0  0  0  0  0
  -12.6695    5.8909    0.0000 O   0  0  0  0  0  0  0  0  0  0  0  0
  -11.8659    2.5701    0.0000 N   0  0  0  0  0  0  0  0  0  0  0  0
  -12.5640    3.6907    0.0000 N   0  0  0  0  0  0  0  0  0  0  0  0
    4.9279    0.9839    0.0000 C   0  0  0  0  0  0  0  0  0  0  0  0
  -23.5834   10.7342    0.0000 N   0  0  0  0  0  0  0  0  0  0  0  0
  -24.2606   11.7071    0.0000 O   0  0  0  0  0  0  0  0  0  0  0  0
   18.9517   -2.0622    0.0000 C   0  0  0  0  0  0  0  0  0  0  0  0
   19.5013   -5.8903    0.0000 C   0  0  0  0  0  0  0  0  0  0  0  0
  -13.3466    7.8366    0.0000 N   0  0  0  0  0  0  0  0  0  0  0  0
  -14.0447    6.6945    0.0000 C   0  0  0  0  0  0  0  0  0  0  0  0
    5.7953    1.5126    0.0000 N   0  0  0  0  0  0  0  0  0  0  0  0
    4.9279    0.1165    0.0000 O   0  0  0  0  0  0  0  0  0  0  0  0
  -23.5411    9.9092    0.0000 C   0  0  0  0  0  0  0  0  0  0  0  0
   17.6827   -2.8234    0.0000 C   0  0  0  0  0  0  0  0  0  0  0  0
   18.9517   -1.0047    0.0000 O   0  0  0  0  0  0  0  0  0  0  0  0
   18.8033   -6.8632    0.0000 C   0  0  0  0  0  0  0  0  0  0  0  0
  -14.0447    8.2384    0.0000 C   0  0  0  0  0  0  0  0  0  0  0  0
  -14.0447   -2.5271    0.0000 S   0  0  0  0  0  0  0  0  0  0  0  0
    6.5571    0.9415    0.0000 C   0  0  0  0  0  0  0  0  0  0  0  0
  -22.8222    9.5713    0.0000 C   0  0  0  0  0  0  0  0  0  0  0  0
  -24.1545    9.5075    0.0000 C   0  0  0  0  0  0  0  0  0  0  0  0
   16.6037   -2.1254    0.0000 N   0  0  0  0  0  0  0  0  0  0  0  0
   19.4167   -8.3015    0.0000 C   0  0  0  0  0  0  0  0  0  0  0  0
  -14.6581    7.8366    0.0000 C   0  0  0  0  0  0  0  0  0  0  0  0
  -14.0447    9.0002    0.0000 O   0  0  0  0  0  0  0  0  0  0  0  0
    7.6354   -2.4216    0.0000 S   0  0  0  0  0  0  0  0  0  0  0  0
    7.4661    1.4488    0.0000 C   0  0  0  0  0  0  0  0  0  0  0  0
    6.5571    0.0742    0.0000 C   0  0  0  0  0  0  0  0  0  0  0  0
  -22.2720   10.0153    0.0000 N   0  0  0  0  0  0  0  0  0  0  0  0
  -22.8222    8.7039    0.0000 O   0  0  0  0  0  0  0  0  0  0  0  0
  -24.1545    8.7039    0.0000 C   0  0  0  0  0  0  0  0  0  0  0  0
   15.7364   -2.7811    0.0000 C   0  0  0  0  0  0  0  0  0  0  0  0
   18.5917   -9.3590    0.0000 N   0  0  0  0  0  0  0  0  0  0  0  0
  -15.4193    8.2384    0.0000 N   0  0  0  0  0  0  0  0  0  0  0  0
  -14.6581    7.0539    0.0000 C   0  0  0  0  0  0  0  0  0  0  0  0
    7.6354   -0.4968    0.0000 C   0  0  0  0  0  0  0  0  0  0  0  0
    8.4396    1.1532    0.0000 N   0  0  0  0  0  0  0  0  0  0  0  0
    7.4661    2.2106    0.0000 O   0  0  0  0  0  0  0  0  0  0  0  0
    5.9014   -0.4968    0.0000 O   0  0  0  0  0  0  0  0  0  0  0  0
  -21.4899    9.7191    0.0000 C   0  0  0  0  0  0  0  0  0  0  0  0
  -24.7679    8.3445    0.0000 C   0  0  0  0  0  0  0  0  0  0  0  0
   14.3618   -2.3161    0.0000 C   0  0  0  0  0  0  0  0  0  0  0  0
   15.7364   -3.7539    0.0000 O   0  0  0  0  0  0  0  0  0  0  0  0
  -16.0327    7.8366    0.0000 C   0  0  0  0  0  0  0  0  0  0  0  0
  -15.3769    6.6945    0.0000 C   0  0  0  0  0  0  0  0  0  0  0  0
    8.5027    0.0742    0.0000 C   0  0  0  0  0  0  0  0  0  0  0  0
  -20.9397   10.2270    0.0000 C   0  0  0  0  0  0  0  0  0  0  0  0
  -24.7679    7.5618    0.0000 C   0  0  0  0  0  0  0  0  0  0  0  0
   14.2980   -1.0470    0.0000 N   0  0  0  0  0  0  0  0  0  0  0  0
   13.6000   -2.9295    0.0000 C   0  0  0  0  0  0  0  0  0  0  0  0
  -16.7092    8.2384    0.0000 C   0  0  0  0  0  0  0  0  0  0  0  0
  -16.0327    7.1177    0.0000 O   0  0  0  0  0  0  0  0  0  0  0  0
  -15.4193    5.8909    0.0000 C   0  0  0  0  0  0  0  0  0  0  0  0
    9.4547   -0.4968    0.0000 C   0  0  0  0  0  0  0  0  0  0  0  0
  -20.1785    9.9092    0.0000 N   0  0  0  0  0  0  0  0  0  0  0  0
  -20.9397   10.9459    0.0000 O   0  0  0  0  0  0  0  0  0  0  0  0
  -25.3812    7.1177    0.0000 N   0  0  0  0  0  0  0  0  0  0  0  0
   13.0289   -0.6453    0.0000 C   0  0  0  0  0  0  0  0  0  0  0  0
   13.6000   -4.0502    0.0000 O   0  0  0  0  0  0  0  0  0  0  0  0
  -16.7515    9.0002    0.0000 N   0  0  0  0  0  0  0  0  0  0  0  0
  -17.3649    7.8366    0.0000 C   0  0  0  0  0  0  0  0  0  0  0  0
  -16.0958    5.4886    0.0000 C   0  0  0  0  0  0  0  0  0  0  0  0
   10.7447   -0.1797    0.0000 N   0  0  0  0  0  0  0  0  0  0  0  0
    9.4547   -1.2587    0.0000 O   0  0  0  0  0  0  0  0  0  0  0  0
  -20.1147    9.1480    0.0000 C   0  0  0  0  0  0  0  0  0  0  0  0
   11.6543   -1.0470    0.0000 C   0  0  0  0  0  0  0  0  0  0  0  0
   13.0289    0.2858    0.0000 O   0  0  0  0  0  0  0  0  0  0  0  0
  -17.4287    9.3596    0.0000 C   0  0  0  0  0  0  0  0  0  0  0  0
  -16.0958    4.8120    0.0000 N   0  0  0  0  0  0  0  0  0  0  0  0
  -19.3535    8.8518    0.0000 C   0  0  0  0  0  0  0  0  0  0  0  0
  -20.7281    8.7039    0.0000 C   0  0  0  0  0  0  0  0  0  0  0  0
   11.1041   -2.2738    0.0000 C   0  0  0  0  0  0  0  0  0  0  0  0
  -18.0206    8.8941    0.0000 C   0  0  0  0  0  0  0  0  0  0  0  0
  -17.4287   10.1632    0.0000 O   0  0  0  0  0  0  0  0  0  0  0  0
  -18.7401    9.2535    0.0000 N   0  0  0  0  0  0  0  0  0  0  0  0
  -19.3535    8.0905    0.0000 O   0  0  0  0  0  0  0  0  0  0  0  0
  -20.6226    7.8366    0.0000 C   0  0  0  0  0  0  0  0  0  0  0  0
   12.1199   -3.2890    0.0000 C   0  0  0  0  0  0  0  0  0  0  0  0
  -21.2360    7.3710    0.0000 C   0  0  0  0  0  0  0  0  0  0  0  0
   11.5065   -4.5581    0.0000 C   0  0  0  0  0  0  0  0  0  0  0  0
  -21.0876    6.6098    0.0000 C   0  0  0  0  0  0  0  0  0  0  0  0
   12.7756   -5.7848    0.0000 N   0  0  0  0  0  0  0  0  0  0  0  0
  -21.7647    6.1443    0.0000 N   0  0  0  0  0  0  0  0  0  0  0  0
   12.3732   -7.0748    0.0000 C   0  0  0  0  0  0  0  0  0  0  0  0
   13.3890   -8.0268    0.0000 N   0  0  0  0  0  0  0  0  0  0  0  0
   11.1464   -7.4342    0.0000 N   0  0  0  0  0  0  0  0  0  0  0  0
    0.2062    0.0000    0.0000 C   0  0  0  0  0  0  0  0  0  0  0  0
    0.6187    0.7145    0.0000 C   0  0  0  0  0  0  0  0  0  0  0  0
    0.6187   -0.7145    0.0000 O   0  0  0  0  0  0  0  0  0  0  0  0
   -0.6187    0.0000    0.0000 O   0  0  0  0  0  0  0  0  0  0  0  0
  1  2  1  6
  1  3  1  0
  1  4  1  0
  2  5  1  0
  3  6  1  0
  3  7  2  0
  4  8  1  0
  5  9  2  0
  5 10  1  0
 11  6  1  0
  8 12  1  0
  8 13  2  0
  9 14  1  0
 10 15  2  0
 11 16  1  0
 11 17  1  6
 12 18  1  0
 12 19  1  6
 14 20  2  0
 15 20  1  0
 16 21  1  0
 16 22  2  0
 17 23  1  0
 18 24  1  0
 19 25  1  0
 20 26  1  0
 27 21  1  0
 23 28  1  0
 23 29  2  0
 24 30  1  0
 24 31  2  0
 25 32  1  0
 27 33  1  0
 27 34  1  6
 30 35  1  0
 30 36  1  6
 32 37  1  0
 33 38  1  0
 33 39  2  0
 34 40  1  0
 35 41  1  0
 36 42  1  0
 43 38  1  0
 40 44  1  0
 41 45  1  0
 41 46  2  0
 42 47  1  0
 42 48  1  0
 43 49  1  0
 43 50  1  6
 44 51  1  0
 45 52  1  0
 45 53  1  6
 49 54  1  0
 49 55  2  0
 50 56  1  0
 51 57  1  0
 52 58  1  0
 53 59  1  0
 60 54  1  6
 56 61  1  0
 57 62  1  0
 57 63  1  6
 58 64  1  0
 58 65  2  0
 59 66  1  0
 60 67  1  0
 60 68  1  0
 61 69  1  0
 62 70  1  0
 63 71  1  0
 63 72  2  0
 64 73  1  0
 64 74  1  6
 66 75  1  0
 67 76  1  0
 67 77  2  0
 68 78  1  6
 68 79  1  0
 69 80  1  0
 70 81  1  0
 70 82  2  0
 73 83  1  0
 74 84  1  0
 75 85  1  0
 76 86  1  0
 80 87  1  0
 80 88  1  6
 81 89  1  0
 81 90  1  6
 83 91  1  0
 83 92  2  0
 85 93  1  0
 85 94  2  0
 86 95  1  0
 87 96  1  0
 87 97  2  0
 89 98  1  0
 90 99  1  0
 91100  1  6
 91101  1  0
 95102  1  0
 95103  2  0
104 96  1  0
 98105  1  0
 98106  2  0
 99107  1  0
100108  1  0
101109  1  0
110102  1  0
104111  1  0
104112  1  6
105113  1  0
107114  1  0
108115  1  0
108116  2  0
109117  1  0
110118  1  0
110119  1  6
111120  1  0
111121  2  0
112122  1  0
113123  1  0
114124  1  0
115125  1  0
115126  1  6
117127  1  0
118128  1  0
118129  2  0
119130  1  0
120131  1  0
122132  1  0
123133  1  0
123134  2  0
125135  1  0
126136  1  0
127137  1  0
137128  1  0
131138  1  0
132139  1  0
133140  1  0
133141  1  6
135142  1  0
135143  2  0
136144  1  0
137145  1  6
138146  1  0
138147  2  0
139148  1  0
140149  1  0
141150  1  0
142151  1  0
142152  1  6
144153  1  0
145154  1  0
145155  2  0
156146  1  0
149157  1  0
149158  2  0
151159  1  0
153160  1  0
157154  1  0
156161  1  0
156162  1  6
157163  1  6
159164  1  0
159165  2  0
161166  1  0
161167  2  0
162168  1  0
163169  1  0
164166  1  0
168170  1  0
169171  1  0
170172  1  0
171173  1  0
172174  1  0
173175  1  0
175176  1  0
175177  2  0
178179  1  0
178180  2  0
178181  1  0
M  CHG  1 181  -1
M  END
