 
     RDKit          2D

110113  0  0  0  0  0  0  0  0999 V2000
   27.6287  -17.1735    0.0000 C   0  0  0  0  0  0  0  0  0  0  0  0
   27.6287  -18.5731    0.0000 C   0  0  0  0  0  0  0  0  0  0  0  0
   28.8416  -19.2728    0.0000 C   0  0  0  0  0  0  0  0  0  0  0  0
   30.0545  -18.5731    0.0000 C   0  0  0  0  0  0  0  0  0  0  0  0
   30.0545  -17.1735    0.0000 C   0  0  0  0  0  0  0  0  0  0  0  0
   28.8416  -16.4738    0.0000 C   0  0  0  0  0  0  0  0  0  0  0  0
   31.2674  -16.4738    0.0000 C   0  0  0  0  0  0  0  0  0  0  0  0
   32.4804  -17.1735    0.0000 C   0  0  0  0  0  0  0  0  0  0  0  0
   33.6933  -16.4738    0.0000 N   0  0  0  0  0  0  0  0  0  0  0  0
   34.9062  -17.1735    0.0000 C   0  0  0  0  0  0  0  0  0  0  0  0
   32.4804  -18.5731    0.0000 C   0  0  0  0  0  0  0  0  0  0  0  0
   31.2674  -15.0743    0.0000 O   0  0  0  0  0  0  0  0  0  0  0  0
   33.6933  -15.0743    0.0000 C   0  0  0  0  0  0  0  0  0  0  0  0
   39.4336  -16.9402    0.0000 Cl  0  0  0  0  0  0  0  0  0  0  0  0
    7.1291  -11.7332    0.0000 C   0  0  0  0  0  0  0  0  0  0  0  0
    7.1349  -10.4399    0.0000 C   0  0  0  0  0  0  0  0  0  0  0  0
    8.2478  -12.3917    0.0000 C   0  0  0  0  0  0  0  0  0  0  0  0
    6.0047  -12.3917    0.0000 C   0  0  0  0  0  0  0  0  0  0  0  0
    8.0556  -10.8244    0.0000 C   0  0  0  0  0  0  0  0  0  0  0  0
    6.0280   -9.7816    0.0000 C   0  0  0  0  0  0  0  0  0  0  0  0
    8.2653   -9.8049    0.0000 C   0  0  0  0  0  0  0  0  0  0  0  0
    9.3839  -11.7507    0.0000 C   0  0  0  0  0  0  0  0  0  0  0  0
    8.2536  -13.6910    0.0000 C   0  0  0  0  0  0  0  0  0  0  0  0
    4.7521  -11.0749    0.0000 O   0  0  0  0  0  0  0  0  0  0  0  0
    6.0047  -13.6910    0.0000 C   0  0  0  0  0  0  0  0  0  0  0  0
   10.4850  -10.8127    0.0000 C   0  0  0  0  0  0  0  0  0  0  0  0
    6.0337   -8.4881    0.0000 C   0  0  0  0  0  0  0  0  0  0  0  0
    9.3897  -10.4516    0.0000 C   0  0  0  0  0  0  0  0  0  0  0  0
    8.2768   -8.5112    0.0000 C   0  0  0  0  0  0  0  0  0  0  0  0
   10.5084  -12.4091    0.0000 N   0  0  0  0  0  0  0  0  0  0  0  0
    7.1291  -14.3376    0.0000 C   0  0  0  0  0  0  0  0  0  0  0  0
    7.1641   -7.8471    0.0000 C   0  0  0  0  0  0  0  0  0  0  0  0
    4.9151   -7.8298    0.0000 O   0  0  0  0  0  0  0  0  0  0  0  0
    4.8799  -14.3415    0.0000 O   0  0  0  0  0  0  0  0  0  0  0  0
    3.7063   -8.5145    0.0000 C   0  0  0  0  0  0  0  0  0  0  0  0
   11.9044  -12.4091    0.0000 C   0  0  0  0  0  0  0  0  0  0  0  0
   16.2129  -11.4022    0.0000 P   0  0  0  0  0  0  0  0  0  0  0  0
   17.5248  -11.4141    0.0000 O   0  0  0  0  0  0  0  0  0  0  0  0
   14.9839  -11.4141    0.0000 O   0  0  0  0  0  0  0  0  0  0  0  0
   16.2720  -12.8330    0.0000 O   0  0  0  0  0  0  0  0  0  0  0  0
   16.2482   -9.7756    0.0000 O   0  0  0  0  0  0  0  0  0  0  0  0
   28.1400  -17.7100    0.0000 C   0  0  0  0  0  0  0  0  0  0  0  0
   28.1400  -19.1100    0.0000 C   0  0  0  0  0  0  0  0  0  0  0  0
   26.8100  -17.2900    0.0000 N   0  0  0  0  0  0  0  0  0  0  0  0
   29.3300  -17.0100    0.0000 C   0  0  0  0  0  0  0  0  0  0  0  0
   29.3300  -19.8100    0.0000 N   0  0  0  0  0  0  0  0  0  0  0  0
   26.8100  -19.6000    0.0000 N   0  0  0  0  0  0  0  0  0  0  0  0
   25.6200  -16.5900    0.0000 C   0  0  0  0  0  0  0  0  0  0  0  0
   25.9700  -18.4800    0.0000 C   0  0  0  0  0  0  0  0  0  0  0  0
   30.5900  -17.7100    0.0000 N   0  0  0  0  0  0  0  0  0  0  0  0
   29.3300  -15.6100    0.0000 O   0  0  0  0  0  0  0  0  0  0  0  0
   30.5900  -19.1100    0.0000 C   0  0  0  0  0  0  0  0  0  0  0  0
   29.3300  -21.2800    0.0000 C   0  0  0  0  0  0  0  0  0  0  0  0
   24.4300  -17.2900    0.0000 C   0  0  0  0  0  0  0  0  0  0  0  0
   31.7800  -17.0100    0.0000 C   0  0  0  0  0  0  0  0  0  0  0  0
   31.7800  -19.8100    0.0000 O   0  0  0  0  0  0  0  0  0  0  0  0
   23.1700  -16.5900    0.0000 C   0  0  0  0  0  0  0  0  0  0  0  0
   24.4300  -18.6900    0.0000 O   0  0  0  0  0  0  0  0  0  0  0  0
   21.9800  -17.2900    0.0000 O   0  0  0  0  0  0  0  0  0  0  0  0
   35.4176  -17.2194    0.0000 C   0  0  0  0  0  0  0  0  0  0  0  0
   36.6305  -17.9191    0.0000 C   0  0  0  0  0  0  0  0  0  0  0  0
   34.2047  -17.9191    0.0000 C   0  0  0  0  0  0  0  0  0  0  0  0
   35.4176  -15.8198    0.0000 C   0  0  0  0  0  0  0  0  0  0  0  0
   36.6305  -19.3186    0.0000 C   0  0  0  0  0  0  0  0  0  0  0  0
   37.8433  -17.2194    0.0000 O   0  0  0  0  0  0  0  0  0  0  0  0
   34.2047  -19.3186    0.0000 C   0  0  0  0  0  0  0  0  0  0  0  0
   36.6305  -15.1201    0.0000 O   0  0  0  0  0  0  0  0  0  0  0  0
   34.2047  -15.1201    0.0000 O   0  0  0  0  0  0  0  0  0  0  0  0
   35.4176  -20.0183    0.0000 C   0  0  0  0  0  0  0  0  0  0  0  0
   26.8347  -17.2856    0.0000 C   0  0  0  0  0  0  0  0  0  0  0  0
   25.6239  -17.9899    0.0000 C   0  0  0  0  0  0  0  0  0  0  0  0
   28.0515  -17.9899    0.0000 C   0  0  0  0  0  0  0  0  0  0  0  0
   26.8406  -15.8884    0.0000 O   0  0  0  0  0  0  0  0  0  0  0  0
   25.6239  -19.3930    0.0000 C   0  0  0  0  0  0  0  0  0  0  0  0
   24.4130  -17.2856    0.0000 C   0  0  0  0  0  0  0  0  0  0  0  0
   28.0458  -19.3930    0.0000 C   0  0  0  0  0  0  0  0  0  0  0  0
   29.2565  -17.2856    0.0000 C   0  0  0  0  0  0  0  0  0  0  0  0
   28.0515  -15.1840    0.0000 C   0  0  0  0  0  0  0  0  0  0  0  0
   24.4130  -20.0856    0.0000 C   0  0  0  0  0  0  0  0  0  0  0  0
   23.1962  -17.9899    0.0000 C   0  0  0  0  0  0  0  0  0  0  0  0
   29.2565  -20.0856    0.0000 C   0  0  0  0  0  0  0  0  0  0  0  0
   30.4732  -17.9899    0.0000 C   0  0  0  0  0  0  0  0  0  0  0  0
   23.1962  -19.3930    0.0000 C   0  0  0  0  0  0  0  0  0  0  0  0
   30.4673  -19.3930    0.0000 C   0  0  0  0  0  0  0  0  0  0  0  0
   29.2874  -15.8950    0.0000 C   0  0  0  0  0  0  0  0  0  0  0  0
   30.4839  -15.2016    0.0000 N   0  0  0  0  0  0  0  0  0  0  0  0
   31.6732  -15.8857    0.0000 C   0  0  0  0  0  0  0  0  0  0  0  0
   30.4817  -13.7927    0.0000 C   0  0  0  0  0  0  0  0  0  0  0  0
   21.1806  -16.6437    0.0000 C   0  0  0  0  0  0  0  0  0  0  0  0
   21.1806  -18.0466    0.0000 C   0  0  0  0  0  0  0  0  0  0  0  0
   19.9699  -15.9511    0.0000 C   0  0  0  0  0  0  0  0  0  0  0  0
   22.3914  -15.9511    0.0000 N   0  0  0  0  0  0  0  0  0  0  0  0
   19.9699  -18.7509    0.0000 C   0  0  0  0  0  0  0  0  0  0  0  0
   18.7534  -16.6437    0.0000 C   0  0  0  0  0  0  0  0  0  0  0  0
   23.6080  -16.6496    0.0000 C   0  0  0  0  0  0  0  0  0  0  0  0
   18.7534  -18.0466    0.0000 C   0  0  0  0  0  0  0  0  0  0  0  0
   24.8186  -15.9511    0.0000 C   0  0  0  0  0  0  0  0  0  0  0  0
   23.6020  -18.0466    0.0000 O   0  0  0  0  0  0  0  0  0  0  0  0
   17.5425  -18.7509    0.0000 O   0  0  0  0  0  0  0  0  0  0  0  0
   17.6022  -17.7619    0.0000 C   0  0  0  0  0  0  0  0  0  0  0  0
   18.8137  -17.0605    0.0000 C   0  0  0  0  0  0  0  0  0  0  0  0
   20.0252  -17.7548    0.0000 C   0  0  0  0  0  0  0  0  0  0  0  0
   21.2367  -17.0534    0.0000 C   0  0  0  0  0  0  0  0  0  0  0  0
   22.4482  -17.7478    0.0000 N   0  0  0  0  0  0  0  0  0  0  0  0
   23.6597  -17.0464    0.0000 C   0  0  0  0  0  0  0  0  0  0  0  0
   24.8713  -17.7407    0.0000 N   0  0  0  0  0  0  0  0  0  0  0  0
   18.8106  -15.6577    0.0000 C   0  0  0  0  0  0  0  0  0  0  0  0
   20.0283  -19.1576    0.0000 Br  0  0  0  0  0  0  0  0  0  0  0  0
   21.2337  -15.6506    0.0000 O   0  0  0  0  0  0  0  0  0  0  0  0
   23.6567  -15.6436    0.0000 O   0  0  0  0  0  0  0  0  0  0  0  0
  1  2  2  0
  2  3  1  0
  3  4  2  0
  4  5  1  0
  5  6  2  0
  1  6  1  0
  5  7  1  0
  7  8  1  0
  8  9  1  0
  9 10  1  0
  8 11  1  0
  7 12  1  0
  9 13  1  0
 18 24  1  6
 18 25  1  0
 19 26  1  0
 20 27  1  0
 21 28  1  0
 21 29  2  0
 22 30  1  0
 23 31  1  0
 27 32  2  0
 27 33  1  0
 20 24  1  0
 22 28  1  1
 25 31  1  0
 26 30  1  0
 29 32  1  0
 25 34  1  6
 15 16  1  0
 15 17  1  0
 15 18  1  0
 15 19  1  1
 16 20  2  0
 16 21  1  0
 17 22  1  0
 17 23  1  6
 33 35  1  0
 30 36  1  0
 37 38  1  0
 37 39  1  0
 37 40  1  0
 37 41  2  0
 42 43  2  0
 42 44  1  0
 42 45  1  0
 43 46  1  0
 43 47  1  0
 44 48  1  0
 44 49  1  0
 45 50  1  0
 45 51  2  0
 46 52  1  0
 46 53  1  0
 48 54  1  0
 50 55  1  0
 52 56  2  0
 54 57  1  0
 54 58  1  0
 57 59  1  0
 47 49  2  0
 50 52  1  0
 60 61  2  0
 60 62  1  0
 60 63  1  0
 61 64  1  0
 61 65  1  0
 62 66  2  0
 63 67  1  0
 63 68  2  0
 64 69  2  0
 66 69  1  0
 74 79  2  0
 75 80  1  0
 76 81  2  0
 77 82  1  0
 79 83  1  0
 81 84  1  0
 80 83  2  0
 82 84  2  0
 70 71  1  0
 70 72  1  0
 70 73  1  0
 71 74  1  0
 71 75  2  0
 72 76  1  0
 72 77  2  0
 73 78  1  0
 78 85  1  0
 85 86  1  0
 86 87  1  0
 86 88  1  0
 89 90  2  0
 89 91  1  0
 89 92  1  0
 90 93  1  0
 91 94  2  0
 92 95  1  0
 93 96  2  0
 95 97  1  0
 95 98  2  0
 96 99  1  0
 94 96  1  0
104105  1  0
100101  1  0
105106  1  0
102103  1  0
101107  1  0
102108  1  0
103104  1  0
103109  2  0
101102  1  0
105110  2  0
M  END
