 
     RDKit          2D

 61 64  0  0  1  0  0  0  0  0999 V2000
   24.3502  -14.6993    0.0000 C   0  0  0  0  0  0  0  0  0  0  0  0
   24.3502  -16.1001    0.0000 C   0  0  0  0  0  0  0  0  0  0  0  0
   25.7512  -16.1001    0.0000 N   0  0  0  0  0  0  0  0  0  0  0  0
   25.7512  -14.6993    0.0000 C   0  0  0  0  0  0  0  0  0  0  0  0
   27.0833  -16.5330    0.0000 C   0  0  0  0  0  0  0  0  0  0  0  0
   27.9067  -15.3997    0.0000 C   0  0  0  0  0  0  0  0  0  0  0  0
   27.0833  -14.2664    0.0000 S   0  0  0  0  0  0  0  0  0  0  0  0
   28.8971  -16.3902    0.0000 C   0  0  0  0  0  0  0  0  0  0  0  0
   28.8971  -14.4092    0.0000 C   0  0  0  0  0  0  0  0  0  0  0  0
   27.5123  -17.8534    0.0000 C   0  0  0  0  0  0  0  0  0  0  0  0
   28.9132  -17.8534    0.0000 O   0  0  0  0  0  0  0  0  0  0  0  0
   26.6865  -18.9901    0.0000 O   0  0  0  0  0  0  0  0  0  0  0  0
   26.7215  -12.9161    0.0000 O   0  0  0  0  0  0  0  0  0  0  0  0
   28.0719  -13.2779    0.0000 O   0  0  0  0  0  0  0  0  0  0  0  0
   23.1378  -16.8001    0.0000 O   0  0  0  0  0  0  0  0  0  0  0  0
   30.8265  -17.9709    0.0000 Na  0  0  0  0  0 15  0  0  0  0  0  0
   29.6210  -17.0917    0.0000 C   0  0  0  0  0  0  0  0  0  0  0  0
   29.6210  -18.4695    0.0000 N   0  0  0  0  0  0  0  0  0  0  0  0
   30.8142  -19.1582    0.0000 C   0  0  0  0  0  0  0  0  0  0  0  0
   32.0074  -18.4695    0.0000 C   0  0  0  0  0  0  0  0  0  0  0  0
   32.0074  -17.0917    0.0000 C   0  0  0  0  0  0  0  0  0  0  0  0
   30.8142  -16.4028    0.0000 S   0  0  0  0  0  0  0  0  0  0  0  0
   28.2431  -17.0917    0.0000 C   0  0  0  0  0  0  0  0  0  0  0  0
   28.2431  -18.4695    0.0000 C   0  0  0  0  0  0  0  0  0  0  0  0
   27.0501  -16.4028    0.0000 N   0  0  0  0  0  0  0  0  0  0  0  0
   25.8567  -17.0917    0.0000 C   0  0  0  0  0  0  0  0  0  0  0  0
   25.8567  -18.4695    0.0000 O   0  0  0  0  0  0  0  0  0  0  0  0
   27.0501  -19.1582    0.0000 O   0  0  0  0  0  0  0  0  0  0  0  0
   24.6636  -16.4028    0.0000 C   0  0  0  0  0  0  0  0  0  0  0  0
   33.2189  -19.1692    0.0000 C   0  0  0  0  0  0  0  0  0  0  0  0
   30.8142  -20.5357    0.0000 C   0  0  0  0  0  0  0  0  0  0  0  0
   29.6044  -21.2343    0.0000 O   0  0  0  0  0  0  0  0  0  0  0  0
   31.9907  -21.2151    0.0000 O   0  0  0  0  0  0  0  0  0  0  0  0
   23.4511  -17.1031    0.0000 N   0  0  0  0  0  0  0  0  0  0  0  0
   22.2594  -16.4150    0.0000 C   0  0  0  0  0  0  0  0  0  0  0  0
   21.0677  -17.1031    0.0000 N   0  0  0  0  0  0  0  0  0  0  0  0
   34.4169  -18.4777    0.0000 S   0  0  0  0  0  0  0  0  0  0  0  0
   35.6098  -19.1667    0.0000 C   0  0  0  0  0  0  0  0  0  0  0  0
   35.9908  -20.4873    0.0000 N   0  0  0  0  0  0  0  0  0  0  0  0
   37.3686  -20.5373    0.0000 N   0  0  0  0  0  0  0  0  0  0  0  0
   37.8420  -19.2425    0.0000 N   0  0  0  0  0  0  0  0  0  0  0  0
   36.7567  -18.3922    0.0000 N   0  0  0  0  0  0  0  0  0  0  0  0
   22.2595  -15.0376    0.0000 O   0  0  0  0  0  0  0  0  0  0  0  0
   19.8845  -16.4200    0.0000 C   0  0  0  0  0  0  0  0  0  0  0  0
   18.6909  -17.1089    0.0000 C   0  0  0  0  0  0  0  0  0  0  0  0
   18.6908  -18.4872    0.0000 N   0  0  0  0  0  0  0  0  0  0  0  0
   19.8741  -19.1703    0.0000 C   0  0  0  0  0  0  0  0  0  0  0  0
   21.0676  -18.4814    0.0000 C   0  0  0  0  0  0  0  0  0  0  0  0
   19.8845  -15.0378    0.0000 O   0  0  0  0  0  0  0  0  0  0  0  0
   17.4790  -16.4090    0.0000 O   0  0  0  0  0  0  0  0  0  0  0  0
   17.4826  -19.1849    0.0000 C   0  0  0  0  0  0  0  0  0  0  0  0
   16.2944  -18.4991    0.0000 C   0  0  0  0  0  0  0  0  0  0  0  0
   36.7359  -16.9955    0.0000 C   0  0  0  0  0  0  0  0  0  0  0  0
   24.6638  -14.9712    0.0000 C   0  0  0  0  0  0  0  0  0  0  0  0
   25.8698  -14.2750    0.0000 C   0  0  0  0  0  0  0  0  0  0  0  0
   25.8698  -12.8707    0.0000 C   0  0  0  0  0  0  0  0  0  0  0  0
   24.6538  -12.1685    0.0000 C   0  0  0  0  0  0  0  0  0  0  0  0
   23.4478  -12.8647    0.0000 C   0  0  0  0  0  0  0  0  0  0  0  0
   23.4477  -14.2689    0.0000 C   0  0  0  0  0  0  0  0  0  0  0  0
   24.6539  -10.7583    0.0000 O   0  0  0  0  0  0  0  0  0  0  0  0
   33.3991  -21.2043    0.0000 Na  0  0  0  0  0 15  0  0  0  0  0  0
  1  2  1  0
  2  3  1  0
  3  4  1  0
  4  1  1  1
  3  5  1  0
  5  6  1  0
  6  7  1  0
  4  7  1  0
  6  8  1  0
  6  9  1  0
  5 10  1  6
 10 11  1  0
 10 12  2  0
  7 13  2  0
  7 14  2  0
  2 15  2  0
 17 18  1  0
 18 19  1  0
 19 20  2  0
 20 21  1  0
 21 22  1  0
 17 22  1  1
 17 23  1  0
 23 24  1  0
 18 24  1  0
 23 25  1  1
 25 26  1  0
 26 27  2  0
 24 28  2  0
 26 29  1  0
 20 30  1  0
 19 31  1  0
 31 32  2  0
 31 33  1  0
 29 34  1  6
 34 35  1  0
 35 36  1  0
 30 37  1  0
 37 38  1  0
 38 39  2  0
 39 40  1  0
 40 41  2  0
 41 42  1  0
 38 42  1  0
 35 43  2  0
 36 44  1  0
 44 45  1  0
 45 46  1  0
 46 47  1  0
 47 48  1  0
 36 48  1  0
 44 49  2  0
 45 50  2  0
 46 51  1  0
 51 52  1  0
 42 53  1  0
 54 55  2  0
 55 56  1  0
 56 57  2  0
 57 58  1  0
 58 59  2  0
 54 59  1  0
 57 60  1  0
 29 54  1  0
M  CHG  4  11  -1  16   1  33  -1  61   1
M  END
