 
     RDKit          2D

  7  4  0  0  0  0  0  0  0  0999 V2000
   25.7938  -18.1586    0.0000 Na  0  0  0  0  0 15  0  0  0  0  0  0
   28.1062  -18.1714    0.0000 F   0  0  0  0  0  0  0  0  0  0  0  0
   23.2069  -19.2962    0.0000 P   0  0  0  0  0  0  0  0  0  0  0  0
   24.4990  -19.3079    0.0000 O   0  0  0  0  0  0  0  0  0  0  0  0
   21.9965  -19.3079    0.0000 O   0  0  0  0  0  0  0  0  0  0  0  0
   23.2651  -20.7054    0.0000 O   0  0  0  0  0  0  0  0  0  0  0  0
   23.2417  -17.6942    0.0000 O   0  0  0  0  0  0  0  0  0  0  0  0
  3  4  1  0
  3  5  1  0
  3  6  1  0
  3  7  2  0
M  CHG  2   1   1   2  -1
M  END
