 
     RDKit          2D

105108  0  1  1  0  0  0  0  0999 V2000
   24.5313  -17.0264    0.0000 C   0  0  0  0  0  0  0  0  0  0  0  0
   24.5313  -18.4300    0.0000 C   0  0  0  0  0  0  0  0  0  0  0  0
   25.9349  -18.4300    0.0000 N   0  0  0  0  0  0  0  0  0  0  0  0
   25.9349  -17.0264    0.0000 C   0  0  0  0  0  0  0  0  0  0  0  0
   27.2683  -18.8510    0.0000 C   0  0  0  0  0  0  0  0  0  0  0  0
   28.1103  -17.7281    0.0000 C   0  0  0  0  0  0  0  0  0  0  0  0
   27.2683  -16.6053    0.0000 S   0  0  0  0  0  0  0  0  0  0  0  0
   29.0929  -18.7107    0.0000 C   0  0  0  0  0  0  0  0  0  0  0  0
   29.0929  -16.7456    0.0000 C   0  0  0  0  0  0  0  0  0  0  0  0
   27.7595  -20.1844    0.0000 C   0  0  0  0  0  0  0  0  0  0  0  0
   29.1630  -20.1844    0.0000 O   0  0  0  0  0  0  0  0  0  0  0  0
   26.9173  -21.3072    0.0000 O   0  0  0  0  0  0  0  0  0  0  0  0
   23.3383  -16.3246    0.0000 N   0  0  0  0  0  0  0  0  0  0  0  0
   22.1452  -17.0264    0.0000 C   0  0  0  0  0  0  0  0  0  0  0  0
   23.3383  -19.1317    0.0000 O   0  0  0  0  0  0  0  0  0  0  0  0
   22.1452  -18.4300    0.0000 O   0  0  0  0  0  0  0  0  0  0  0  0
   20.9268  -16.3295    0.0000 C   0  0  0  0  0  0  0  0  0  0  0  0
   19.7355  -17.0241    0.0000 C   0  0  0  0  0  0  0  0  0  0  0  0
   20.9268  -14.9295    0.0000 N   0  0  0  0  0  0  0  0  0  0  0  0
   18.5230  -16.3241    0.0000 C   0  0  0  0  0  0  0  0  0  0  0  0
   17.3106  -17.0241    0.0000 C   0  0  0  0  0  0  0  0  0  0  0  0
   17.3106  -18.4241    0.0000 C   0  0  0  0  0  0  0  0  0  0  0  0
   18.5230  -19.1241    0.0000 C   0  0  0  0  0  0  0  0  0  0  0  0
   19.7355  -18.4241    0.0000 C   0  0  0  0  0  0  0  0  0  0  0  0
   16.0891  -19.1295    0.0000 O   0  0  0  0  0  0  0  0  0  0  0  0
   34.0923  -18.2711    0.0000 O   0  0  0  0  0  0  0  0  0  0  0  0
   34.0923  -18.2711    0.0000 O   0  0  0  0  0  0  0  0  0  0  0  0
   34.0923  -18.2711    0.0000 O   0  0  0  0  0  0  0  0  0  0  0  0
   24.1709  -17.2043    0.0000 C   0  0  0  0  0  0  0  0  0  0  0  0
   24.1709  -15.8400    0.0000 C   0  0  0  0  0  0  0  0  0  0  0  0
   22.9859  -17.8807    0.0000 C   0  0  0  0  0  0  0  0  0  0  0  0
   25.6666  -18.4812    0.0000 O   0  0  0  0  0  0  0  0  0  0  0  0
   22.9859  -15.1580    0.0000 C   0  0  0  0  0  0  0  0  0  0  0  0
   22.9859  -19.2450    0.0000 C   0  0  0  0  0  0  0  0  0  0  0  0
   21.9450  -16.9275    0.0000 C   0  0  0  0  0  0  0  0  0  0  0  0
   27.4458  -17.6943    0.0000 C   0  0  0  0  0  0  0  0  0  0  0  0
   22.9859  -13.7880    0.0000 C   0  0  0  0  0  0  0  0  0  0  0  0
   23.7258  -20.6034    0.0000 O   0  0  0  0  0  0  0  0  0  0  0  0
   21.8123  -19.9272    0.0000 C   0  0  0  0  0  0  0  0  0  0  0  0
   28.5906  -18.4120    0.0000 C   0  0  0  0  0  0  0  0  0  0  0  0
   27.4113  -16.3303    0.0000 O   0  0  0  0  0  0  0  0  0  0  0  0
   21.8123  -13.1116    0.0000 C   0  0  0  0  0  0  0  0  0  0  0  0
   24.1709  -13.1116    0.0000 C   0  0  0  0  0  0  0  0  0  0  0  0
   24.7548  -21.7190    0.0000 C   0  0  0  0  0  0  0  0  0  0  0  0
   20.6273  -19.2450    0.0000 C   0  0  0  0  0  0  0  0  0  0  0  0
   21.8123  -21.2912    0.0000 C   0  0  0  0  0  0  0  0  0  0  0  0
   29.7920  -17.7775    0.0000 C   0  0  0  0  0  0  0  0  0  0  0  0
   28.5500  -19.7801    0.0000 O   0  0  0  0  0  0  0  0  0  0  0  0
   28.6878  -15.6932    0.0000 C   0  0  0  0  0  0  0  0  0  0  0  0
   20.6273  -13.7880    0.0000 C   0  0  0  0  0  0  0  0  0  0  0  0
   21.8123  -11.7473    0.0000 O   0  0  0  0  0  0  0  0  0  0  0  0
   24.7548  -23.0776    0.0000 C   0  0  0  0  0  0  0  0  0  0  0  0
   25.9398  -21.0369    0.0000 O   0  0  0  0  0  0  0  0  0  0  0  0
   20.6273  -17.8807    0.0000 O   0  0  0  0  0  0  0  0  0  0  0  0
   19.5695  -20.1930    0.0000 O   0  0  0  0  0  0  0  0  0  0  0  0
   29.8379  -16.4196    0.0000 C   0  0  0  0  0  0  0  0  0  0  0  0
   28.7389  -14.3326    0.0000 C   0  0  0  0  0  0  0  0  0  0  0  0
   20.6273  -15.1580    0.0000 C   0  0  0  0  0  0  0  0  0  0  0  0
   19.4481  -13.1116    0.0000 C   0  0  0  0  0  0  0  0  0  0  0  0
   25.9398  -23.7654    0.0000 C   0  0  0  0  0  0  0  0  0  0  0  0
   27.1133  -21.7190    0.0000 C   0  0  0  0  0  0  0  0  0  0  0  0
   19.4481  -17.2043    0.0000 C   0  0  0  0  0  0  0  0  0  0  0  0
   19.4481  -15.8400    0.0000 C   0  0  0  0  0  0  0  0  0  0  0  0
   21.8123  -15.8400    0.0000 O   0  0  0  0  0  0  0  0  0  0  0  0
   27.1133  -23.0776    0.0000 C   0  0  0  0  0  0  0  0  0  0  0  0
   25.9398  -25.0892    0.0000 O   0  0  0  0  0  0  0  0  0  0  0  0
   28.2983  -21.0428    0.0000 C   0  0  0  0  0  0  0  0  0  0  0  0
   18.2688  -17.8807    0.0000 C   0  0  0  0  0  0  0  0  0  0  0  0
   18.1995  -16.4066    0.0000 C   0  0  0  0  0  0  0  0  0  0  0  0
   18.1995  -15.1522    0.0000 O   0  0  0  0  0  0  0  0  0  0  0  0
   28.2983  -23.7654    0.0000 O   0  0  0  0  0  0  0  0  0  0  0  0
   18.3035  -19.0021    0.0000 C   0  0  0  0  0  0  0  0  0  0  0  0
   25.3593  -16.5254    0.0000 C   0  0  0  0  0  0  0  0  0  0  0  0
   27.1615  -25.7951    0.0000 C   0  0  0  0  0  0  0  0  0  0  0  0
   24.7273  -24.4654    0.0000 C   0  0  0  0  0  0  0  0  0  0  0  0
   24.8709  -14.6276    0.0000 O   0  0  0  0  0  0  0  0  0  0  0  0
   26.2709  -14.6276    0.0000 C   0  0  0  0  0  0  0  0  0  0  0  0
   30.9997  -18.5339    0.0000 N   0  0  0  0  0  0  0  0  0  0  0  0
   32.2377  -17.8772    0.0000 C   0  0  0  0  0  0  0  0  0  0  0  0
   31.0187  -19.9487    0.0000 C   0  0  0  0  0  0  0  0  0  0  0  0
   14.2800  -19.3900    0.0000 C   0  0  0  0  0  0  0  0  0  0  0  0
   14.2800  -20.7900    0.0000 C   0  0  0  0  0  0  0  0  0  0  0  0
   15.4924  -21.4900    0.0000 C   0  0  0  0  0  0  0  0  0  0  0  0
   16.7049  -20.7900    0.0000 C   0  0  0  0  0  0  0  0  0  0  0  0
   16.7049  -19.3900    0.0000 C   0  0  0  0  0  0  0  0  0  0  0  0
   15.4924  -18.6900    0.0000 C   0  0  0  0  0  0  0  0  0  0  0  0
   18.0364  -21.2226    0.0000 N   0  0  0  0  0  0  0  0  0  0  0  0
   18.8593  -20.0900    0.0000 C   0  0  0  0  0  0  0  0  0  0  0  0
   18.0364  -18.9574    0.0000 N   0  0  0  0  0  0  0  0  0  0  0  0
   20.2300  -20.0900    0.0000 S   0  0  0  0  0  0  0  0  0  0  0  0
   20.9300  -21.3024    0.0000 C   0  0  0  0  0  0  0  0  0  0  0  0
   20.9300  -18.8776    0.0000 O   0  0  0  0  0  0  0  0  0  0  0  0
   22.3298  -21.3024    0.0000 C   0  0  0  0  0  0  0  0  0  0  0  0
   23.0203  -22.4980    0.0000 C   0  0  0  0  0  0  0  0  0  0  0  0
   24.4203  -22.4978    0.0000 C   0  0  0  0  0  0  0  0  0  0  0  0
   25.1201  -21.2853    0.0000 C   0  0  0  0  0  0  0  0  0  0  0  0
   24.4297  -20.0898    0.0000 C   0  0  0  0  0  0  0  0  0  0  0  0
   23.0297  -20.0899    0.0000 N   0  0  0  0  0  0  0  0  0  0  0  0
   22.3349  -23.6852    0.0000 C   0  0  0  0  0  0  0  0  0  0  0  0
   25.1110  -23.6932    0.0000 O   0  0  0  0  0  0  0  0  0  0  0  0
   26.5296  -23.6932    0.0000 C   0  0  0  0  0  0  0  0  0  0  0  0
   27.2156  -24.8806    0.0000 C   0  0  0  0  0  0  0  0  0  0  0  0
   28.4280  -24.1806    0.0000 F   0  0  0  0  0  0  0  0  0  0  0  0
   26.0032  -25.5806    0.0000 F   0  0  0  0  0  0  0  0  0  0  0  0
   27.9156  -26.0931    0.0000 F   0  0  0  0  0  0  0  0  0  0  0  0
  1  2  1  0
  2  3  1  0
  3  4  1  0
  1  4  1  0
  3  5  1  0
  5  6  1  0
  6  7  1  0
  4  7  1  1
  6  8  1  0
  6  9  1  0
  5 10  1  6
 10 11  1  0
 10 12  2  0
  1 13  1  1
 13 14  1  0
  2 15  2  0
 14 16  2  0
 14 17  1  0
 17 18  1  0
 17 19  1  1
 18 20  2  0
 20 21  1  0
 21 22  2  0
 22 23  1  0
 23 24  2  0
 18 24  1  0
 22 25  1  0
 29 30  1  0
 29 31  1  0
 29 32  1  6
 30 33  1  0
 31 34  1  0
 31 35  1  6
 36 32  1  6
 33 37  1  0
 34 38  1  6
 34 39  1  0
 36 40  1  0
 36 41  1  0
 37 42  1  0
 37 43  1  6
 44 38  1  6
 39 45  1  0
 39 46  1  1
 40 47  1  0
 40 48  1  1
 41 49  1  0
 42 50  1  0
 42 51  2  0
 44 52  1  0
 44 53  1  0
 45 54  1  0
 45 55  2  0
 47 56  1  0
 49 57  1  6
 50 58  1  0
 50 59  1  1
 52 60  1  0
 53 61  1  0
 54 62  1  0
 58 63  1  0
 58 64  1  1
 60 65  1  0
 60 66  1  0
 61 67  1  1
 62 68  1  6
 63 69  1  6
 63 70  1  0
 65 71  1  6
 68 72  1  0
 49 56  1  0
 61 65  1  0
 62 63  1  0
 30 73  1  6
 66 74  1  0
 60 75  1  1
 30 76  1  0
 76 77  1  0
 47 78  1  6
 78 79  1  0
 78 80  1  0
 81 82  2  0
 82 83  1  0
 83 84  2  0
 84 85  1  0
 85 86  2  0
 81 86  1  0
 84 87  1  0
 87 88  2  0
 88 89  1  0
 85 89  1  0
 88 90  1  0
 90 91  1  0
 90 92  2  0
 91 93  1  0
 93 94  2  0
 94 95  1  0
 95 96  2  0
 96 97  1  0
 97 98  2  0
 93 98  1  0
 94 99  1  0
 95100  1  0
100101  1  0
101102  1  0
102103  1  0
102104  1  0
102105  1  0
M  STY  1   1 MUL
M  SLB  1   1   1
M  SCN  1   1 HT 
M  SAL   1  3  26  27  28
M  SPA   1  1  26
M  SDI   1  4   32.1300  -19.1800   32.1300  -17.3600
M  SDI   1  4   34.5800  -17.3600   34.5800  -19.1800
M  SMT   1 3
M  END
