5329098
     RDKit          2D

 18 20  0  0  0  0  0  0  0  0999 V2000
    6.2619   -1.1736    0.0000 O   0  0  0  0  0  0  0  0  0  0  0  0
    6.7094    0.1175    0.0000 N   0  0  0  0  0  0  0  0  0  0  0  0
    4.6783   -1.9783    0.0000 N   0  0  0  0  0  0  0  0  0  0  0  0
    4.6783   -0.3688    0.0000 C   0  0  0  0  0  0  0  0  0  0  0  0
    5.9674    0.7879    0.0000 C   0  0  0  0  0  0  0  0  0  0  0  0
    3.7320   -0.6736    0.0000 C   0  0  0  0  0  0  0  0  0  0  0  0
    6.3758    1.7007    0.0000 C   0  0  0  0  0  0  0  0  0  0  0  0
    4.9889    0.5817    0.0000 C   0  0  0  0  0  0  0  0  0  0  0  0
    3.7320   -1.6736    0.0000 C   0  0  0  0  0  0  0  0  0  0  0  0
    7.5763    0.6160    0.0000 C   0  0  0  0  0  0  0  0  0  0  0  0
    5.2619   -1.1736    0.0000 C   0  0  0  0  0  0  0  0  0  0  0  0
    7.3701    1.5945    0.0000 C   0  0  0  0  0  0  0  0  0  0  0  0
    2.8660   -0.1736    0.0000 C   0  0  0  0  0  0  0  0  0  0  0  0
    2.8660   -2.1736    0.0000 C   0  0  0  0  0  0  0  0  0  0  0  0
    5.8772    2.5676    0.0000 C   0  0  0  0  0  0  0  0  0  0  0  0
    8.4892    0.2077    0.0000 C   0  0  0  0  0  0  0  0  0  0  0  0
    2.0000   -0.6736    0.0000 C   0  0  0  0  0  0  0  0  0  0  0  0
    2.0000   -1.6736    0.0000 C   0  0  0  0  0  0  0  0  0  0  0  0
  1 11  2  0
  2  5  1  0
  2 10  1  0
  3  9  1  0
  3 11  1  0
  4  6  1  0
  4  8  2  0
  4 11  1  0
  5  7  2  0
  5  8  1  0
  6  9  2  0
  6 13  1  0
  7 12  1  0
  7 15  1  0
  9 14  1  0
 10 12  2  0
 10 16  1  0
 13 17  2  0
 14 18  2  0
 17 18  1  0
M  END
