121950
     RDKit          2D

 19 15  0  0  1  0  0  0  0  0999 V2000
    6.2089    2.1200    0.0000 O   0  0  0  0  0  0  0  0  0  0  0  0
    8.8070    1.6200    0.0000 O   0  0  0  0  0  0  0  0  0  0  0  0
    5.3429    9.1688    0.0000 O   0  0  0  0  0  0  0  0  0  0  0  0
    9.6730    8.6688    0.0000 O   0  0  0  0  0  0  0  0  0  0  0  0
    6.2089    7.6688    0.0000 O   0  0  0  0  0  0  0  0  0  0  0  0
    8.8070   10.1688    0.0000 O   0  0  0  0  0  0  0  0  0  0  0  0
    2.2690    5.5659    0.0000 O   0  0  0  0  0  0  0  0  0  0  0  0
    1.4030    4.0659    0.0000 O   0  0  0  0  0  0  0  0  0  0  0  0
    7.0749    4.6319    0.0000 O   0  0  0  0  0  0  0  0  0  0  0  0
    7.0749    1.6200    0.0000 C   0  0  0  0  0  0  0  0  0  0  0  0
    7.9409    2.1200    0.0000 C   0  0  0  0  0  0  0  0  0  0  0  0
    7.0749    0.6200    0.0000 C   0  0  0  0  0  0  0  0  0  0  0  0
    7.0749    9.1688    0.0000 C   0  0  0  0  0  0  0  0  0  0  0  0
    7.9409    8.6688    0.0000 C   0  0  0  0  0  0  0  0  0  0  0  0
    6.2089    8.6688    0.0000 C   0  0  0  0  0  0  0  0  0  0  0  0
    8.8070    9.1688    0.0000 C   0  0  0  0  0  0  0  0  0  0  0  0
    0.5369    5.5659    0.0000 C   0  0  0  0  0  0  0  0  0  0  0  0
    1.4030    5.0659    0.0000 C   0  0  0  0  0  0  0  0  0  0  0  0
    7.9409    5.1319    0.0000 C   0  0  0  0  0  0  0  0  0  0  0  0
  1 10  1  0
  2 11  1  0
  3 15  1  0
  4 16  1  0
  5 15  2  0
  6 16  2  0
  7 18  1  0
  8 18  2  0
  9 19  1  0
 10 11  1  0
 10 12  1  0
 13 14  1  0
 13 15  1  0
 14 16  1  0
 17 18  1  0
M  END
