 
 
 
 40 43  0  0  0  0  0  0  0  0999 V2000
   18.1236  -13.7485    0.0000 C   0  0  0  0  0  0  0  0  0  0  0  0
   18.1236  -12.3526    0.0000 C   0  0  0  0  0  0  0  0  0  0  0  0
   16.9371  -11.6547    0.0000 C   0  0  0  0  0  0  0  0  0  0  0  0
   15.6807  -12.3526    0.0000 C   0  0  0  0  0  0  0  0  0  0  0  0
   15.6807  -13.7485    0.0000 C   0  0  0  0  0  0  0  0  0  0  0  0
   16.9371  -14.4465    0.0000 C   0  0  0  0  0  0  0  0  0  0  0  0
   14.4942  -11.6547    0.0000 N   0  0  0  0  0  0  0  0  0  0  0  0
   13.3077  -12.3526    0.0000 C   0  0  0  0  0  0  0  0  0  0  0  0
   13.3077  -13.7485    0.0000 C   0  0  0  0  0  0  0  0  0  0  0  0
   14.4942  -14.4465    0.0000 C   0  0  0  0  0  0  0  0  0  0  0  0
   14.4942  -15.8424    0.0000 N   0  0  0  0  0  0  0  0  0  0  0  0
   15.6807  -16.5404    0.0000 C   0  0  0  0  0  0  0  0  0  0  0  0
   12.1910  -14.4465    0.0000 C   0  0  0  0  0  0  0  0  0  0  0  0
   10.9346  -15.1444    0.0000 N   0  0  0  0  0  0  0  0  0  0  0  0
   16.8673  -15.8424    0.0000 C   0  0  0  0  0  0  0  0  0  0  0  0
   18.1236  -16.5404    0.0000 C   0  0  0  0  0  0  0  0  0  0  0  0
   18.1236  -17.8665    0.0000 C   0  0  0  0  0  0  0  0  0  0  0  0
   16.9371  -18.5644    0.0000 C   0  0  0  0  0  0  0  0  0  0  0  0
   15.6807  -17.8665    0.0000 C   0  0  0  0  0  0  0  0  0  0  0  0
   16.9371  -19.9603    0.0000 Cl  0  0  0  0  0  0  0  0  0  0  0  0
   19.3325  -18.5644    0.0000 O   0  0  0  0  0  0  0  0  0  0  0  0
   20.5414  -17.8665    0.0000 C   0  0  0  0  0  0  0  0  0  0  0  0
   21.7503  -18.5644    0.0000 C   0  0  0  0  0  0  0  0  0  0  0  0
   21.7503  -19.9603    0.0000 N   0  0  0  0  0  0  0  0  0  0  0  0
   22.9591  -20.6583    0.0000 C   0  0  0  0  0  0  0  0  0  0  0  0
   24.1681  -19.9603    0.0000 C   0  0  0  0  0  0  0  0  0  0  0  0
   24.1681  -18.5644    0.0000 C   0  0  0  0  0  0  0  0  0  0  0  0
   22.9591  -17.8665    0.0000 C   0  0  0  0  0  0  0  0  0  0  0  0
   19.3577  -11.6472    0.0000 O   0  0  0  0  0  0  0  0  0  0  0  0
   19.3312  -14.4390    0.0000 N   0  0  0  0  0  0  0  0  0  0  0  0
   19.3577  -10.2472    0.0000 C   0  0  0  0  0  0  0  0  0  0  0  0
   20.6062   -9.5266    0.0000 C   0  0  0  0  0  0  0  0  0  0  0  0
   20.5405  -13.7341    0.0000 C   0  0  0  0  0  0  0  0  0  0  0  0
   21.7268  -14.4125    0.0000 C   0  0  0  0  0  0  0  0  0  0  0  0
   20.5349  -12.3202    0.0000 O   0  0  0  0  0  0  0  0  0  0  0  0
   22.9130  -13.7209    0.0000 C   0  0  0  0  0  0  0  0  0  0  0  0
   24.1106  -14.4058    0.0000 C   0  0  0  0  0  0  0  0  0  0  0  0
   25.2910  -13.7176    0.0000 N   0  0  0  0  0  0  0  0  0  0  0  0
   26.4915  -14.4041    0.0000 C   0  0  0  0  0  0  0  0  0  0  0  0
   25.2852  -12.3201    0.0000 C   0  0  0  0  0  0  0  0  0  0  0  0
  1  2  2  0     0  0
  2  3  1  0     0  0
  3  4  2  0     0  0
  4  5  1  0     0  0
  5  6  2  0     0  0
  1  6  1  0     0  0
  4  7  1  0     0  0
  7  8  2  0     0  0
  8  9  1  0     0  0
  9 10  2  0     0  0
  5 10  1  0     0  0
 10 11  1  0     0  0
 11 12  1  0     0  0
  9 13  1  0     0  0
 13 14  3  0     0  0
 12 15  2  0     0  0
 15 16  1  0     0  0
 16 17  2  0     0  0
 17 18  1  0     0  0
 18 19  2  0     0  0
 12 19  1  0     0  0
 18 20  1  0     0  0
 17 21  1  0     0  0
 21 22  1  0     0  0
 22 23  1  0     0  0
 23 24  2  0     0  0
 24 25  1  0     0  0
 25 26  2  0     0  0
 26 27  1  0     0  0
 27 28  2  0     0  0
 23 28  1  0     0  0
  2 29  1  0     0  0
  1 30  1  0     0  0
 29 31  1  0     0  0
 31 32  1  0     0  0
 30 33  1  0     0  0
 33 34  1  0     0  0
 33 35  2  0     0  0
 34 36  2  0     0  0
 36 37  1  0     0  0
 37 38  1  0     0  0
 38 39  1  0     0  0
 38 40  1  0     0  0
M  END
