 
     RDKit          2D

 67 76  0  0  1  0  0  0  0  0999 V2000
   19.0779  -11.8363    0.0000 C   0  0  0  0  0  0  0  0  0  0  0  0
   19.0779  -13.2006    0.0000 C   0  0  0  0  0  0  0  0  0  0  0  0
   20.2594  -13.8828    0.0000 C   0  0  0  0  0  0  0  0  0  0  0  0
   21.4411  -13.2006    0.0000 C   0  0  0  0  0  0  0  0  0  0  0  0
   21.4411  -11.8363    0.0000 C   0  0  0  0  0  0  0  0  0  0  0  0
   20.2594  -11.1541    0.0000 C   0  0  0  0  0  0  0  0  0  0  0  0
   22.6226  -13.8828    0.0000 C   0  0  0  0  0  0  0  0  0  0  0  0
   23.8041  -13.2006    0.0000 C   0  0  0  0  0  0  0  0  0  0  0  0
   23.8041  -11.8363    0.0000 C   0  0  0  0  0  0  0  0  0  0  0  0
   22.6226  -11.1541    0.0000 C   0  0  0  0  0  0  0  0  0  0  0  0
   24.9857  -11.1541    0.0000 C   0  0  0  0  0  0  0  0  0  0  0  0
   24.9857   -9.7898    0.0000 C   0  0  0  0  0  0  0  0  0  0  0  0
   23.8041   -9.1076    0.0000 C   0  0  0  0  0  0  0  0  0  0  0  0
   22.6226   -9.7898    0.0000 C   0  0  0  0  0  0  0  0  0  0  0  0
   27.3487  -11.1541    0.0000 C   0  0  0  0  0  0  0  0  0  0  0  0
   27.3487   -9.7898    0.0000 C   0  0  0  0  0  0  0  0  0  0  0  0
   26.1672   -9.1076    0.0000 C   0  0  0  0  0  0  0  0  0  0  0  0
   26.1672   -7.7433    0.0000 O   0  0  0  0  0  0  0  0  0  0  0  0
   17.8964  -13.8828    0.0000 O   0  0  0  0  0  0  0  0  0  0  0  0
   24.9857   -8.4255    0.0000 C   0  0  0  0  0  0  0  0  0  0  0  0
   26.8820  -17.0674    0.0000 C   0  0  0  0  0  0  0  0  0  0  0  0
   28.0682  -16.3895    0.0000 C   0  0  0  0  0  0  0  0  0  0  0  0
   26.8705  -18.4405    0.0000 C   0  0  0  0  0  0  0  0  0  0  0  0
   25.7075  -16.3836    0.0000 C   0  0  0  0  0  0  0  0  0  0  0  0
   26.8762  -15.7000    0.0000 C   0  0  0  0  0  0  0  0  0  0  0  0
   29.2545  -17.0791    0.0000 C   0  0  0  0  0  0  0  0  0  0  0  0
   28.0567  -15.0162    0.0000 O   0  0  0  0  0  0  0  0  0  0  0  0
   29.2487  -15.7000    0.0000 C   0  0  0  0  0  0  0  0  0  0  0  0
   25.6842  -19.1184    0.0000 C   0  0  0  0  0  0  0  0  0  0  0  0
   29.2429  -18.3822    0.0000 C   0  0  0  0  0  0  0  0  0  0  0  0
   24.5155  -17.0557    0.0000 C   0  0  0  0  0  0  0  0  0  0  0  0
   28.0567  -13.6548    0.0000 C   0  0  0  0  0  0  0  0  0  0  0  0
   30.4292  -15.0105    0.0000 C   0  0  0  0  0  0  0  0  0  0  0  0
   24.5038  -18.4231    0.0000 C   0  0  0  0  0  0  0  0  0  0  0  0
   25.6842  -20.4917    0.0000 C   0  0  0  0  0  0  0  0  0  0  0  0
   29.2429  -12.9710    0.0000 C   0  0  0  0  0  0  0  0  0  0  0  0
   26.8762  -12.9769    0.0000 O   0  0  0  0  0  0  0  0  0  0  0  0
   23.3175  -19.1009    0.0000 C   0  0  0  0  0  0  0  0  0  0  0  0
   24.4921  -21.1696    0.0000 C   0  0  0  0  0  0  0  0  0  0  0  0
   23.3118  -20.4800    0.0000 C   0  0  0  0  0  0  0  0  0  0  0  0
   22.1371  -18.4172    0.0000 C   0  0  0  0  0  0  0  0  0  0  0  0
   22.1371  -21.1636    0.0000 C   0  0  0  0  0  0  0  0  0  0  0  0
   20.9508  -19.1009    0.0000 C   0  0  0  0  0  0  0  0  0  0  0  0
   20.9508  -20.4800    0.0000 C   0  0  0  0  0  0  0  0  0  0  0  0
   19.7588  -21.1579    0.0000 O   0  0  0  0  0  0  0  0  0  0  0  0
   26.8452  -17.3412    0.0000 C   0  0  0  0  0  0  0  0  0  0  0  0
   26.8512  -15.9656    0.0000 C   0  0  0  0  0  0  0  0  0  0  0  0
   25.6547  -18.0321    0.0000 C   0  0  0  0  0  0  0  0  0  0  0  0
   29.2262  -17.3473    0.0000 C   0  0  0  0  0  0  0  0  0  0  0  0
   28.0417  -15.2747    0.0000 C   0  0  0  0  0  0  0  0  0  0  0  0
   25.6484  -15.2810    0.0000 C   0  0  0  0  0  0  0  0  0  0  0  0
   26.8019  -14.4420    0.0000 C   0  0  0  0  0  0  0  0  0  0  0  0
   24.4702  -17.3536    0.0000 C   0  0  0  0  0  0  0  0  0  0  0  0
   25.5970  -19.4015    0.0000 C   0  0  0  0  0  0  0  0  0  0  0  0
   29.2324  -15.9718    0.0000 C   0  0  0  0  0  0  0  0  0  0  0  0
   29.1954  -14.5962    0.0000 C   0  0  0  0  0  0  0  0  0  0  0  0
   28.0357  -13.5161    0.0000 O   0  0  0  0  0  0  0  0  0  0  0  0
   24.5279  -15.9779    0.0000 C   0  0  0  0  0  0  0  0  0  0  0  0
   23.2921  -18.0384    0.0000 C   0  0  0  0  0  0  0  0  0  0  0  0
   24.4826  -20.0800    0.0000 C   0  0  0  0  0  0  0  0  0  0  0  0
   30.3488  -13.9116    0.0000 C   0  0  0  0  0  0  0  0  0  0  0  0
   23.2921  -19.3954    0.0000 C   0  0  0  0  0  0  0  0  0  0  0  0
   22.1200  -17.3720    0.0000 C   0  0  0  0  0  0  0  0  0  0  0  0
   22.1200  -20.0800    0.0000 C   0  0  0  0  0  0  0  0  0  0  0  0
   20.9542  -18.0384    0.0000 C   0  0  0  0  0  0  0  0  0  0  0  0
   20.9542  -19.3954    0.0000 C   0  0  0  0  0  0  0  0  0  0  0  0
   19.7884  -20.0616    0.0000 O   0  0  0  0  0  0  0  0  0  0  0  0
  1  2  2  0
  2  3  1  0
  3  4  2  0
  4  5  1  0
  5  6  2  0
  1  6  1  0
  4  7  1  0
  7  8  1  0
  9  8  1  6
  9 10  1  0
  5 10  1  0
  9 11  1  0
 11 12  1  0
 12 13  1  0
 13 14  1  0
 10 14  1  1
 11 15  1  1
 15 16  1  0
 16 17  1  0
 12 17  1  0
 17 18  1  1
  2 19  1  0
 12 20  1  1
 21 22  1  0
 21 23  1  0
 21 24  1  0
 21 25  1  1
 22 26  1  0
 22 27  1  0
 22 28  1  6
 23 29  1  0
 23 30  1  1
 24 31  1  0
 27 32  1  0
 28 33  3  0
 29 34  1  0
 29 35  1  6
 32 36  1  0
 32 37  2  0
 34 38  1  0
 35 39  1  0
 38 40  1  0
 38 41  1  6
 40 42  2  0
 41 43  1  0
 42 44  1  0
 44 45  2  0
 26 30  1  0
 34 31  1  1
 39 40  1  0
 43 44  1  0
 46 47  1  0
 46 48  1  0
 46 49  1  1
 47 50  1  0
 47 51  1  0
 47 52  1  1
 48 53  1  0
 48 54  1  6
 49 55  1  0
 50 56  1  0
 50 57  1  1
 51 58  1  0
 53 59  1  0
 54 60  1  0
 56 61  3  0
 59 62  1  0
 59 63  1  6
 62 64  2  0
 63 65  1  0
 64 66  1  0
 66 67  2  0
 50 55  1  0
 53 58  1  1
 60 62  1  0
 65 66  1  0
M  END
