 
     RDKit          2D

 49 52  0  0  1  0  0  0  0  0999 V2000
   19.4226  -22.2154    0.0000 C   0  0  0  0  0  0  0  0  0  0  0  0
   19.4226  -23.6234    0.0000 C   0  0  0  0  0  0  0  0  0  0  0  0
   20.6194  -24.3274    0.0000 C   0  0  0  0  0  0  0  0  0  0  0  0
   21.8865  -23.6234    0.0000 C   0  0  0  0  0  0  0  0  0  0  0  0
   21.8865  -22.2154    0.0000 C   0  0  0  0  0  0  0  0  0  0  0  0
   20.6194  -21.5115    0.0000 C   0  0  0  0  0  0  0  0  0  0  0  0
   23.0833  -21.5115    0.0000 C   0  0  0  0  0  0  0  0  0  0  0  0
   24.2801  -22.2154    0.0000 C   0  0  0  0  0  0  0  0  0  0  0  0
   25.5472  -21.5115    0.0000 C   0  0  0  0  0  0  0  0  0  0  0  0
   25.5472  -20.1035    0.0000 C   0  0  0  0  0  0  0  0  0  0  0  0
   24.3504  -19.3995    0.0000 C   0  0  0  0  0  0  0  0  0  0  0  0
   23.0833  -20.1035    0.0000 C   0  0  0  0  0  0  0  0  0  0  0  0
   20.6194  -20.1035    0.0000 C   0  0  0  0  0  0  0  0  0  0  0  0
   21.7457  -19.2587    0.0000 N   0  0  0  0  0  0  0  0  0  0  0  0
   21.3233  -17.9916    0.0000 N   0  0  0  0  0  0  0  0  0  0  0  0
   19.9154  -17.9916    0.0000 N   0  0  0  0  0  0  0  0  0  0  0  0
   19.4930  -19.2587    0.0000 N   0  0  0  0  0  0  0  0  0  0  0  0
   26.7440  -19.3995    0.0000 C   0  0  0  0  0  0  0  0  0  0  0  0
   26.7440  -17.9916    0.0000 N   0  0  0  0  0  0  0  0  0  0  0  0
   27.9407  -17.2876    0.0000 C   0  0  0  0  0  0  0  0  0  0  0  0
   25.5472  -17.2876    0.0000 C   0  0  0  0  0  0  0  0  0  0  0  0
   24.3504  -17.9916    0.0000 O   0  0  0  0  0  0  0  0  0  0  0  0
   25.5472  -15.8797    0.0000 C   0  0  0  0  0  0  0  0  0  0  0  0
   24.3504  -15.1757    0.0000 C   0  0  0  0  0  0  0  0  0  0  0  0
   24.3504  -13.7677    0.0000 C   0  0  0  0  0  0  0  0  0  0  0  0
   23.1537  -13.0637    0.0000 C   0  0  0  0  0  0  0  0  0  0  0  0
   29.1375  -17.9916    0.0000 C   0  0  0  0  0  0  0  0  0  0  0  0
   30.3343  -17.2876    0.0000 O   0  0  0  0  0  0  0  0  0  0  0  0
   29.1375  -19.3995    0.0000 O   0  0  0  0  0  0  0  0  0  0  0  0
   27.9407  -15.8797    0.0000 C   0  0  0  0  0  0  0  0  0  0  0  0
   26.7440  -15.1757    0.0000 C   0  0  0  0  0  0  0  0  0  0  0  0
   29.1375  -15.1757    0.0000 C   0  0  0  0  0  0  0  0  0  0  0  0
   22.4791  -15.9596    0.0000 C   0  0  0  0  0  0  0  0  0  0  0  0
   22.4731  -17.3165    0.0000 C   0  0  0  0  0  0  0  0  0  0  0  0
   23.6605  -15.2870    0.0000 C   0  0  0  0  0  0  0  0  0  0  0  0
   21.3034  -15.2811    0.0000 S   0  0  0  0  0  0  0  0  0  0  0  0
   23.6430  -18.0010    0.0000 C   0  0  0  0  0  0  0  0  0  0  0  0
   21.3034  -17.9950    0.0000 N   0  0  0  0  0  0  0  0  0  0  0  0
   24.8304  -15.9713    0.0000 C   0  0  0  0  0  0  0  0  0  0  0  0
   20.1278  -15.9596    0.0000 N   0  0  0  0  0  0  0  0  0  0  0  0
   19.9933  -14.4564    0.0000 O   0  0  0  0  0  0  0  0  0  0  0  0
   22.5376  -14.4564    0.0000 O   0  0  0  0  0  0  0  0  0  0  0  0
   24.8244  -17.3282    0.0000 C   0  0  0  0  0  0  0  0  0  0  0  0
   20.1278  -17.3165    0.0000 C   0  0  0  0  0  0  0  0  0  0  0  0
   26.0118  -15.2987    0.0000 S   0  0  0  0  0  0  0  0  0  0  0  0
   26.0003  -18.0127    0.0000 Cl  0  0  0  0  0  0  0  0  0  0  0  0
   27.2636  -14.4623    0.0000 N   0  0  0  0  0  0  0  0  0  0  0  0
   27.1349  -16.3164    0.0000 O   0  0  0  0  0  0  0  0  0  0  0  0
   24.9357  -14.2516    0.0000 O   0  0  0  0  0  0  0  0  0  0  0  0
  1  2  2  0
  2  3  1  0
  3  4  2  0
  4  5  1  0
  5  6  2  0
  1  6  1  0
  5  7  1  0
  7  8  2  0
  8  9  1  0
  9 10  2  0
 10 11  1  0
 11 12  2  0
  7 12  1  0
  6 13  1  0
 13 14  1  0
 14 15  1  0
 15 16  2  0
 16 17  1  0
 13 17  2  0
 10 18  1  0
 18 19  1  0
 19 20  1  0
 19 21  1  0
 21 22  2  0
 21 23  1  0
 23 24  1  0
 24 25  1  0
 25 26  1  0
 20 27  1  0
 27 28  2  0
 27 29  1  0
 20 30  1  1
 30 31  1  0
 30 32  1  0
 33 34  1  0
 33 35  2  0
 33 36  1  0
 34 37  2  0
 34 38  1  0
 35 39  1  0
 36 40  1  0
 36 41  2  0
 36 42  2  0
 37 43  1  0
 38 44  1  0
 39 45  1  0
 43 46  1  0
 45 47  1  0
 45 48  2  0
 45 49  2  0
 39 43  2  0
 40 44  1  0
M  END
