 
     RDKit          2D

 43 49  0  0  1  0  0  0  0  0999 V2000
   19.0779  -11.8363    0.0000 C   0  0  0  0  0  0  0  0  0  0  0  0
   19.0779  -13.2006    0.0000 C   0  0  0  0  0  0  0  0  0  0  0  0
   20.2594  -13.8828    0.0000 C   0  0  0  0  0  0  0  0  0  0  0  0
   21.4411  -13.2006    0.0000 C   0  0  0  0  0  0  0  0  0  0  0  0
   21.4411  -11.8363    0.0000 C   0  0  0  0  0  0  0  0  0  0  0  0
   20.2594  -11.1541    0.0000 C   0  0  0  0  0  0  0  0  0  0  0  0
   22.6226  -13.8828    0.0000 C   0  0  0  0  0  0  0  0  0  0  0  0
   23.8041  -13.2006    0.0000 C   0  0  0  0  0  0  0  0  0  0  0  0
   23.8041  -11.8363    0.0000 C   0  0  0  0  0  0  0  0  0  0  0  0
   22.6226  -11.1541    0.0000 C   0  0  0  0  0  0  0  0  0  0  0  0
   24.9857  -11.1541    0.0000 C   0  0  0  0  0  0  0  0  0  0  0  0
   24.9857   -9.7898    0.0000 C   0  0  0  0  0  0  0  0  0  0  0  0
   23.8041   -9.1076    0.0000 C   0  0  0  0  0  0  0  0  0  0  0  0
   22.6226   -9.7898    0.0000 C   0  0  0  0  0  0  0  0  0  0  0  0
   27.3487  -11.1541    0.0000 C   0  0  0  0  0  0  0  0  0  0  0  0
   27.3487   -9.7898    0.0000 C   0  0  0  0  0  0  0  0  0  0  0  0
   26.1672   -9.1076    0.0000 C   0  0  0  0  0  0  0  0  0  0  0  0
   26.1672   -7.7433    0.0000 O   0  0  0  0  0  0  0  0  0  0  0  0
   17.8964  -13.8828    0.0000 O   0  0  0  0  0  0  0  0  0  0  0  0
   24.9857   -8.4255    0.0000 C   0  0  0  0  0  0  0  0  0  0  0  0
    5.3900  -17.3600    0.0000 C   0  0  0  0  0  0  0  0  0  0  0  0
    5.3900  -18.7600    0.0000 C   0  0  0  0  0  0  0  0  0  0  0  0
    6.6024  -19.4600    0.0000 C   0  0  0  0  0  0  0  0  0  0  0  0
    7.8149  -18.7600    0.0000 C   0  0  0  0  0  0  0  0  0  0  0  0
    7.8149  -17.3600    0.0000 C   0  0  0  0  0  0  0  0  0  0  0  0
    6.6024  -16.6600    0.0000 C   0  0  0  0  0  0  0  0  0  0  0  0
    9.0273  -19.4600    0.0000 C   0  0  0  0  0  0  0  0  0  0  0  0
   10.2397  -18.7600    0.0000 C   0  0  0  0  0  0  0  0  0  0  0  0
   10.2397  -17.3600    0.0000 C   0  0  0  0  0  0  0  0  0  0  0  0
    9.0273  -16.6600    0.0000 C   0  0  0  0  0  0  0  0  0  0  0  0
   11.4522  -16.6600    0.0000 C   0  0  0  0  0  0  0  0  0  0  0  0
   11.4522  -15.2600    0.0000 C   0  0  0  0  0  0  0  0  0  0  0  0
   10.2397  -14.5600    0.0000 C   0  0  0  0  0  0  0  0  0  0  0  0
    9.0273  -15.2600    0.0000 C   0  0  0  0  0  0  0  0  0  0  0  0
   13.8770  -16.6600    0.0000 C   0  0  0  0  0  0  0  0  0  0  0  0
   13.8770  -15.2600    0.0000 C   0  0  0  0  0  0  0  0  0  0  0  0
   12.6646  -14.5600    0.0000 C   0  0  0  0  0  0  0  0  0  0  0  0
    4.1776  -19.4600    0.0000 O   0  0  0  0  0  0  0  0  0  0  0  0
   11.4522  -13.8600    0.0000 C   0  0  0  0  0  0  0  0  0  0  0  0
   12.6646  -13.1600    0.0000 O   0  0  0  0  0  0  0  0  0  0  0  0
   13.8770  -13.8600    0.0000 C   0  0  0  0  0  0  0  0  0  0  0  0
   15.0895  -13.1600    0.0000 C   0  0  0  0  0  0  0  0  0  0  0  0
   10.2608  -13.1719    0.0000 C   0  0  0  0  0  0  0  0  0  0  0  0
  1  2  2  0
  2  3  1  0
  3  4  2  0
  4  5  1  0
  5  6  2  0
  1  6  1  0
  4  7  1  0
  7  8  1  0
  9  8  1  6
  9 10  1  0
  5 10  1  0
  9 11  1  0
 11 12  1  0
 12 13  1  0
 13 14  1  0
 10 14  1  1
 11 15  1  1
 15 16  1  0
 16 17  1  0
 12 17  1  0
 17 18  1  1
  2 19  1  0
 12 20  1  1
 21 22  1  0
 22 23  1  0
 23 24  2  0
 24 25  1  0
 25 26  1  6
 21 26  1  0
 24 27  1  0
 27 28  1  0
 29 28  1  6
 29 30  1  0
 25 30  1  0
 29 31  1  0
 31 32  1  0
 32 33  1  0
 33 34  1  0
 30 34  1  1
 31 35  1  1
 35 36  1  0
 36 37  1  0
 32 37  1  0
 22 38  2  0
 32 39  1  1
 37 40  1  1
 37 41  1  0
 41 42  3  0
 39 43  1  0
M  END
