 
     RDKit          2D

 70 71  0  0  0  0  0  0  0  0999 V2000
   21.6932  -17.0217    0.0000 C   0  0  0  0  0  0  0  0  0  0  0  0
   22.9128  -16.3157    0.0000 C   0  0  0  0  0  0  0  0  0  0  0  0
   21.6932  -18.4279    0.0000 C   0  0  0  0  0  0  0  0  0  0  0  0
   20.4737  -16.3214    0.0000 O   0  0  0  0  0  0  0  0  0  0  0  0
   24.1207  -17.0217    0.0000 C   0  0  0  0  0  0  0  0  0  0  0  0
   22.9128  -19.1281    0.0000 C   0  0  0  0  0  0  0  0  0  0  0  0
   19.2600  -17.0274    0.0000 C   0  0  0  0  0  0  0  0  0  0  0  0
   24.1207  -18.4221    0.0000 C   0  0  0  0  0  0  0  0  0  0  0  0
   25.3402  -16.3157    0.0000 N   0  0  0  0  0  0  0  0  0  0  0  0
   18.0405  -16.3274    0.0000 N   0  0  0  0  0  0  0  0  0  0  0  0
   19.2600  -18.4338    0.0000 O   0  0  0  0  0  0  0  0  0  0  0  0
   26.7988  -15.3937    0.0000 C   0  0  0  0  0  0  0  0  0  0  0  0
   24.6750  -15.2537    0.0000 C   0  0  0  0  0  0  0  0  0  0  0  0
   26.1630  -17.5234    0.0000 C   0  0  0  0  0  0  0  0  0  0  0  0
   16.8326  -17.0334    0.0000 C   0  0  0  0  0  0  0  0  0  0  0  0
   18.0405  -14.9210    0.0000 C   0  0  0  0  0  0  0  0  0  0  0  0
   32.7856  -17.4302    0.0000 S   0  0  0  0  0  0  0  0  0  0  0  0
   31.4201  -17.4243    0.0000 O   0  0  0  0  0  0  0  0  0  0  0  0
   32.7739  -18.7022    0.0000 O   0  0  0  0  0  0  0  0  0  0  0  0
   32.7272  -15.8138    0.0000 O   0  0  0  0  0  0  0  0  0  0  0  0
   34.1686  -17.4302    0.0000 O   0  0  0  0  0  0  0  0  0  0  0  0
   30.6791  -16.3389    0.0000 C   0  0  0  0  0  0  0  0  0  0  0  0
   30.5665  -18.3867    0.0000 S   0  0  0  0  0  0  0  0  0  0  0  0
   30.5665  -16.9867    0.0000 O   0  0  0  0  0  0  0  0  0  0  0  0
   30.5665  -19.7867    0.0000 O   0  0  0  0  0  0  0  0  0  0  0  0
   31.9665  -18.3867    0.0000 O   0  0  0  0  0  0  0  0  0  0  0  0
   29.1666  -18.3867    0.0000 O   0  0  0  0  0  0  0  0  0  0  0  0
   36.2599  -18.3400    0.0000 O   0  0  0  0  0  0  0  0  0  0  0  0
   15.7738  -18.5308    0.0000 C   0  0  0  0  0  0  0  0  0  0  0  0
   16.1019  -17.3591    0.0000 C   0  0  0  0  0  0  0  0  0  0  0  0
   16.9455  -18.2496    0.0000 C   0  0  0  0  0  0  0  0  0  0  0  0
   17.2736  -17.0779    0.0000 C   0  0  0  0  0  0  0  0  0  0  0  0
   16.0082  -15.7656    0.0000 N   0  0  0  0  0  0  0  0  0  0  0  0
   18.8202  -18.2496    0.0000 C   0  0  0  0  0  0  0  0  0  0  0  0
   18.5390  -17.0779    0.0000 C   0  0  0  0  0  0  0  0  0  0  0  0
   19.8513  -18.8120    0.0000 C   0  0  0  0  0  0  0  0  0  0  0  0
   20.9293  -19.7025    0.0000 O   0  0  0  0  0  0  0  0  0  0  0  0
   22.1479  -19.7025    0.0000 C   0  0  0  0  0  0  0  0  0  0  0  0
   22.7572  -18.6245    0.0000 C   0  0  0  0  0  0  0  0  0  0  0  0
   22.7572  -20.8273    0.0000 O   0  0  0  0  0  0  0  0  0  0  0  0
   23.9758  -18.6245    0.0000 C   0  0  0  0  0  0  0  0  0  0  0  0
   22.1479  -17.5934    0.0000 C   0  0  0  0  0  0  0  0  0  0  0  0
   22.7572  -16.5155    0.0000 O   0  0  0  0  0  0  0  0  0  0  0  0
   24.6820  -19.8482    0.0000 C   0  0  0  0  0  0  0  0  0  0  0  0
   26.0820  -19.8485    0.0000 C   0  0  0  0  0  0  0  0  0  0  0  0
   26.7822  -18.6362    0.0000 C   0  0  0  0  0  0  0  0  0  0  0  0
   26.0761  -17.4125    0.0000 C   0  0  0  0  0  0  0  0  0  0  0  0
   24.6761  -17.4122    0.0000 C   0  0  0  0  0  0  0  0  0  0  0  0
   15.2591  -14.5814    0.0000 C   0  0  0  0  0  0  0  0  0  0  0  0
   15.7738  -18.5308    0.0000 C   0  0  0  0  0  0  0  0  0  0  0  0
   16.1019  -17.3591    0.0000 C   0  0  0  0  0  0  0  0  0  0  0  0
   17.2736  -17.0779    0.0000 C   0  0  0  0  0  0  0  0  0  0  0  0
   18.5390  -17.0779    0.0000 C   0  0  0  0  0  0  0  0  0  0  0  0
   19.8513  -18.8120    0.0000 C   0  0  0  0  0  0  0  0  0  0  0  0
   18.8202  -18.2496    0.0000 C   0  0  0  0  0  0  0  0  0  0  0  0
   16.9455  -18.2496    0.0000 C   0  0  0  0  0  0  0  0  0  0  0  0
   16.0082  -15.7656    0.0000 N   0  0  0  0  0  0  0  0  0  0  0  0
   15.2591  -14.5814    0.0000 C   0  0  0  0  0  0  0  0  0  0  0  0
   20.9293  -19.7025    0.0000 O   0  0  0  0  0  0  0  0  0  0  0  0
   22.1479  -19.7025    0.0000 C   0  0  0  0  0  0  0  0  0  0  0  0
   22.7572  -18.6245    0.0000 C   0  0  0  0  0  0  0  0  0  0  0  0
   23.9758  -18.6245    0.0000 C   0  0  0  0  0  0  0  0  0  0  0  0
   24.6820  -19.8482    0.0000 C   0  0  0  0  0  0  0  0  0  0  0  0
   26.0820  -19.8485    0.0000 C   0  0  0  0  0  0  0  0  0  0  0  0
   26.7822  -18.6362    0.0000 C   0  0  0  0  0  0  0  0  0  0  0  0
   26.0761  -17.4125    0.0000 C   0  0  0  0  0  0  0  0  0  0  0  0
   24.6761  -17.4122    0.0000 C   0  0  0  0  0  0  0  0  0  0  0  0
   22.1479  -17.5934    0.0000 C   0  0  0  0  0  0  0  0  0  0  0  0
   22.7572  -16.5155    0.0000 O   0  0  0  0  0  0  0  0  0  0  0  0
   22.7572  -20.8273    0.0000 O   0  0  0  0  0  0  0  0  0  0  0  0
  1  2  2  0
  1  3  1  0
  1  4  1  0
  2  5  1  0
  3  6  2  0
  4  7  1  0
  5  8  2  0
  5  9  1  0
  7 10  1  0
  7 11  2  0
  9 12  1  0
  9 13  1  0
  9 14  1  0
 10 15  1  0
 10 16  1  0
  6  8  1  0
 17 18  1  0
 17 19  2  0
 17 20  2  0
 17 21  1  0
 18 22  1  0
 23 24  2  0
 23 25  2  0
 23 26  1  0
 23 27  1  0
 29 30  1  0
 31 29  1  6
 32 30  1  1
 31 33  1  0
 31 34  1  0
 32 35  1  0
 34 36  1  0
 36 37  1  6
 37 38  1  0
 38 39  1  0
 38 40  2  0
 39 41  1  0
 39 42  1  0
 42 43  1  0
 32 33  1  0
 35 36  1  0
 41 44  2  0
 44 45  1  0
 45 46  2  0
 46 47  1  0
 47 48  2  0
 41 48  1  0
 33 49  1  0
 50 51  1  0
 56 50  1  6
 52 51  1  1
 56 57  1  0
 56 55  1  0
 52 53  1  0
 55 54  1  0
 54 59  1  6
 59 60  1  0
 60 61  1  0
 60 70  2  0
 61 62  1  0
 61 68  1  0
 68 69  1  0
 52 57  1  0
 53 54  1  0
 62 63  2  0
 63 64  1  0
 64 65  2  0
 65 66  1  0
 66 67  2  0
 62 67  1  0
 57 58  1  0
M  CHG  2   9   1  21  -1
M  END
