 
     RDKit          2D

 56 62  0  0  0  0  0  0  0  0999 V2000
    6.3000   -7.3500    0.0000 C   0  0  0  0  0  0  0  0  0  0  0  0
    6.3000   -8.7500    0.0000 C   0  0  0  0  0  0  0  0  0  0  0  0
    7.5124   -9.4500    0.0000 C   0  0  0  0  0  0  0  0  0  0  0  0
    8.7249   -8.7500    0.0000 C   0  0  0  0  0  0  0  0  0  0  0  0
    8.7249   -7.3500    0.0000 C   0  0  0  0  0  0  0  0  0  0  0  0
    7.5124   -6.6500    0.0000 C   0  0  0  0  0  0  0  0  0  0  0  0
    9.9560   -6.6390    0.0000 C   0  0  0  0  0  0  0  0  0  0  0  0
   11.1612   -7.3347    0.0000 C   0  0  0  0  0  0  0  0  0  0  0  0
   12.3735   -6.6346    0.0000 C   0  0  0  0  0  0  0  0  0  0  0  0
   12.3735   -5.2346    0.0000 C   0  0  0  0  0  0  0  0  0  0  0  0
   11.1683   -4.5389    0.0000 C   0  0  0  0  0  0  0  0  0  0  0  0
    9.9559   -5.2390    0.0000 C   0  0  0  0  0  0  0  0  0  0  0  0
    7.5124   -5.2502    0.0000 C   0  0  0  0  0  0  0  0  0  0  0  0
    6.2832   -4.5403    0.0000 O   0  0  0  0  0  0  0  0  0  0  0  0
    8.7080   -4.5598    0.0000 O   0  0  0  0  0  0  0  0  0  0  0  0
   13.5914   -4.5312    0.0000 C   0  0  0  0  0  0  0  0  0  0  0  0
   14.8034   -5.2307    0.0000 N   0  0  0  0  0  0  0  0  0  0  0  0
   15.2226   -6.5648    0.0000 C   0  0  0  0  0  0  0  0  0  0  0  0
   16.6225   -6.5780    0.0000 C   0  0  0  0  0  0  0  0  0  0  0  0
   17.0677   -5.2506    0.0000 N   0  0  0  0  0  0  0  0  0  0  0  0
   15.9428   -4.4171    0.0000 C   0  0  0  0  0  0  0  0  0  0  0  0
   15.9551   -3.0100    0.0000 C   0  0  0  0  0  0  0  0  0  0  0  0
   17.1773   -2.3185    0.0000 C   0  0  0  0  0  0  0  0  0  0  0  0
   18.3595   -3.0151    0.0000 C   0  0  0  0  0  0  0  0  0  0  0  0
   14.5112   -7.7706    0.0000 C   0  0  0  0  0  0  0  0  0  0  0  0
   15.1998   -9.0596    0.0000 C   0  0  0  0  0  0  0  0  0  0  0  0
   16.5998   -9.0027    0.0000 C   0  0  0  0  0  0  0  0  0  0  0  0
   17.3111   -7.7969    0.0000 C   0  0  0  0  0  0  0  0  0  0  0  0
   18.6894   -7.7394    0.0000 C   0  0  0  0  0  0  0  0  0  0  0  0
   14.5146  -10.2563    0.0000 C   0  0  0  0  0  0  0  0  0  0  0  0
   13.1146  -10.2563    0.0000 N   0  0  0  0  0  0  0  0  0  0  0  0
   12.4229   -9.0592    0.0000 C   0  0  0  0  0  0  0  0  0  0  0  0
   12.6819  -11.5878    0.0000 C   0  0  0  0  0  0  0  0  0  0  0  0
   13.8146  -12.4107    0.0000 C   0  0  0  0  0  0  0  0  0  0  0  0
   14.9472  -11.5878    0.0000 N   0  0  0  0  0  0  0  0  0  0  0  0
   13.8146  -13.8107    0.0000 C   0  0  0  0  0  0  0  0  0  0  0  0
   12.5931  -14.5162    0.0000 C   0  0  0  0  0  0  0  0  0  0  0  0
   11.3745  -13.8131    0.0000 C   0  0  0  0  0  0  0  0  0  0  0  0
   11.3745  -12.3904    0.0000 C   0  0  0  0  0  0  0  0  0  0  0  0
   22.4791  -15.9596    0.0000 C   0  0  0  0  0  0  0  0  0  0  0  0
   22.4731  -17.3165    0.0000 C   0  0  0  0  0  0  0  0  0  0  0  0
   23.6605  -15.2870    0.0000 C   0  0  0  0  0  0  0  0  0  0  0  0
   21.3034  -15.2811    0.0000 S   0  0  0  0  0  0  0  0  0  0  0  0
   23.6430  -18.0010    0.0000 C   0  0  0  0  0  0  0  0  0  0  0  0
   21.3034  -17.9950    0.0000 N   0  0  0  0  0  0  0  0  0  0  0  0
   24.8304  -15.9713    0.0000 C   0  0  0  0  0  0  0  0  0  0  0  0
   20.1278  -15.9596    0.0000 N   0  0  0  0  0  0  0  0  0  0  0  0
   19.9933  -14.4564    0.0000 O   0  0  0  0  0  0  0  0  0  0  0  0
   22.5376  -14.4564    0.0000 O   0  0  0  0  0  0  0  0  0  0  0  0
   24.8244  -17.3282    0.0000 C   0  0  0  0  0  0  0  0  0  0  0  0
   20.1278  -17.3165    0.0000 C   0  0  0  0  0  0  0  0  0  0  0  0
   26.0118  -15.2987    0.0000 S   0  0  0  0  0  0  0  0  0  0  0  0
   26.0003  -18.0127    0.0000 Cl  0  0  0  0  0  0  0  0  0  0  0  0
   27.2636  -14.4623    0.0000 N   0  0  0  0  0  0  0  0  0  0  0  0
   27.1349  -16.3164    0.0000 O   0  0  0  0  0  0  0  0  0  0  0  0
   24.9357  -14.2516    0.0000 O   0  0  0  0  0  0  0  0  0  0  0  0
  1  2  2  0
  2  3  1  0
  3  4  2  0
  4  5  1  0
  5  6  2  0
  1  6  1  0
  5  7  1  0
  7  8  2  0
  8  9  1  0
  9 10  2  0
 10 11  1  0
 11 12  2  0
  7 12  1  0
  6 13  1  0
 13 14  2  0
 13 15  1  0
 10 16  1  0
 16 17  1  0
 17 18  1  0
 18 19  2  0
 19 20  1  0
 20 21  2  0
 17 21  1  0
 21 22  1  0
 22 23  1  0
 23 24  1  0
 18 25  1  0
 25 26  2  0
 26 27  1  0
 27 28  2  0
 19 28  1  0
 28 29  1  0
 26 30  1  0
 30 31  1  0
 31 32  1  0
 31 33  1  0
 33 34  2  0
 34 35  1  0
 30 35  2  0
 34 36  1  0
 36 37  2  0
 37 38  1  0
 38 39  2  0
 39 33  1  0
 40 41  1  0
 40 42  2  0
 40 43  1  0
 41 44  2  0
 41 45  1  0
 42 46  1  0
 43 47  1  0
 43 48  2  0
 43 49  2  0
 44 50  1  0
 45 51  1  0
 46 52  1  0
 50 53  1  0
 52 54  1  0
 52 55  2  0
 52 56  2  0
 46 50  2  0
 47 51  1  0
M  END
