 
     RDKit          2D

101106  0  0  1  0  0  0  0  0999 V2000
    5.1100  -12.9500    0.0000 C   0  0  0  0  0  0  0  0  0  0  0  0
    6.3000  -13.6500    0.0000 C   0  0  0  0  0  0  0  0  0  0  0  0
    7.5600  -12.9500    0.0000 C   0  0  0  0  0  0  0  0  0  0  0  0
    8.7500  -13.6500    0.0000 C   0  0  0  0  0  0  0  0  0  0  0  0
    9.9400  -12.9500    0.0000 N   0  0  0  0  0  0  0  0  0  0  0  0
   11.2000  -13.6500    0.0000 C   0  0  0  0  0  0  0  0  0  0  0  0
   12.3900  -12.9500    0.0000 C   0  0  0  0  0  0  0  0  0  0  0  0
   13.5800  -13.6500    0.0000 N   0  0  0  0  0  0  0  0  0  0  0  0
   14.8400  -12.9500    0.0000 C   0  0  0  0  0  0  0  0  0  0  0  0
   16.0300  -13.6500    0.0000 C   0  0  0  0  0  0  0  0  0  0  0  0
   17.2200  -12.9500    0.0000 C   0  0  0  0  0  0  0  0  0  0  0  0
   18.4800  -13.6500    0.0000 S   0  0  0  0  0  0  0  0  0  0  0  0
   18.4800  -15.0500    0.0000 S   0  0  0  0  0  0  0  0  0  0  0  0
   17.2900  -15.7500    0.0000 C   0  0  0  0  0  0  0  0  0  0  0  0
   17.2900  -17.1500    0.0000 C   0  0  0  0  0  0  0  0  0  0  0  0
   16.1000  -17.8500    0.0000 N   0  0  0  0  0  0  0  0  0  0  0  0
   14.8400  -17.1500    0.0000 C   0  0  0  0  0  0  0  0  0  0  0  0
   13.6500  -17.8500    0.0000 C   0  0  0  0  0  0  0  0  0  0  0  0
   12.4600  -17.1500    0.0000 N   0  0  0  0  0  0  0  0  0  0  0  0
   11.2000  -17.8500    0.0000 C   0  0  0  0  0  0  0  0  0  0  0  0
   10.0100  -17.1500    0.0000 C   0  0  0  0  0  0  0  0  0  0  0  0
    8.8200  -17.8500    0.0000 C   0  0  0  0  0  0  0  0  0  0  0  0
   14.8400  -15.7500    0.0000 O   0  0  0  0  0  0  0  0  0  0  0  0
   13.6500  -21.9100    0.0000 C   0  0  0  0  0  0  0  0  0  0  0  0
   11.2000  -19.2500    0.0000 O   0  0  0  0  0  0  0  0  0  0  0  0
    8.8200  -19.2500    0.0000 C   0  0  0  0  0  0  0  0  0  0  0  0
   10.0100  -15.7500    0.0000 N   0  0  0  0  0  0  0  0  0  0  0  0
    8.7500  -15.0500    0.0000 C   0  0  0  0  0  0  0  0  0  0  0  0
   11.2000  -14.8400    0.0000 O   0  0  0  0  0  0  0  0  0  0  0  0
   12.3900  -11.5500    0.0000 C   0  0  0  0  0  0  0  0  0  0  0  0
   14.8400  -11.5500    0.0000 O   0  0  0  0  0  0  0  0  0  0  0  0
   16.0300  -14.8400    0.0000 N   0  0  0  0  0  0  0  0  0  0  0  0
   13.5800  -10.8500    0.0000 S   0  0  0  0  0  0  0  0  0  0  0  0
   18.4800  -17.8500    0.0000 C   0  0  0  0  0  0  0  0  0  0  0  0
   19.7400  -17.1500    0.0000 N   0  0  0  0  0  0  0  0  0  0  0  0
   20.9300  -17.8500    0.0000 C   0  0  0  0  0  0  0  0  0  0  0  0
   22.1200  -17.1500    0.0000 C   0  0  0  0  0  0  0  0  0  0  0  0
   23.3800  -17.8500    0.0000 N   0  0  0  0  0  0  0  0  0  0  0  0
   18.4800  -19.2500    0.0000 O   0  0  0  0  0  0  0  0  0  0  0  0
    7.6300  -19.9500    0.0000 C   0  0  0  0  0  0  0  0  0  0  0  0
    7.6300  -21.3500    0.0000 C   0  0  0  0  0  0  0  0  0  0  0  0
    8.8200  -22.0500    0.0000 C   0  0  0  0  0  0  0  0  0  0  0  0
   10.0100  -21.3500    0.0000 C   0  0  0  0  0  0  0  0  0  0  0  0
   10.0100  -19.9500    0.0000 C   0  0  0  0  0  0  0  0  0  0  0  0
    8.8200  -23.4500    0.0000 O   0  0  0  0  0  0  0  0  0  0  0  0
    7.6300  -15.7500    0.0000 O   0  0  0  0  0  0  0  0  0  0  0  0
   22.1200  -15.7500    0.0000 O   0  0  0  0  0  0  0  0  0  0  0  0
   23.3800  -19.2500    0.0000 C   0  0  0  0  0  0  0  0  0  0  0  0
   24.7100  -19.6700    0.0000 C   0  0  0  0  0  0  0  0  0  0  0  0
   25.4800  -18.5500    0.0000 C   0  0  0  0  0  0  0  0  0  0  0  0
   24.7100  -17.4300    0.0000 C   0  0  0  0  0  0  0  0  0  0  0  0
   25.1300  -16.1000    0.0000 C   0  0  0  0  0  0  0  0  0  0  0  0
   26.5300  -15.8200    0.0000 O   0  0  0  0  0  0  0  0  0  0  0  0
   24.2200  -15.0500    0.0000 N   0  0  0  0  0  0  0  0  0  0  0  0
   24.2200  -13.6500    0.0000 C   0  0  0  0  0  0  0  0  0  0  0  0
   25.4100  -12.9500    0.0000 C   0  0  0  0  0  0  0  0  0  0  0  0
   23.0300  -12.9500    0.0000 C   0  0  0  0  0  0  0  0  0  0  0  0
   26.6000  -13.6500    0.0000 O   0  0  0  0  0  0  0  0  0  0  0  0
   25.4100  -11.5500    0.0000 N   0  0  0  0  0  0  0  0  0  0  0  0
   24.2200  -10.8500    0.0000 C   0  0  0  0  0  0  0  0  0  0  0  0
   23.0300  -11.5500    0.0000 C   0  0  0  0  0  0  0  0  0  0  0  0
   24.2200   -9.4500    0.0000 C   0  0  0  0  0  0  0  0  0  0  0  0
   21.9100  -10.8500    0.0000 S   0  0  0  0  0  0  0  0  0  0  0  0
   25.4100   -8.7500    0.0000 N   0  0  0  0  0  0  0  0  0  0  0  0
   26.6000   -9.4500    0.0000 C   0  0  0  0  0  0  0  0  0  0  0  0
   23.0300   -8.7500    0.0000 O   0  0  0  0  0  0  0  0  0  0  0  0
   26.6000  -10.8500    0.0000 C   0  0  0  0  0  0  0  0  0  0  0  0
   27.8600  -11.5500    0.0000 N   0  0  0  0  0  0  0  0  0  0  0  0
   27.8600  -12.9500    0.0000 C   0  0  0  0  0  0  0  0  0  0  0  0
   27.7900   -8.7500    0.0000 C   0  0  0  0  0  0  0  0  0  0  0  0
   28.9800   -9.4500    0.0000 O   0  0  0  0  0  0  0  0  0  0  0  0
   27.7900   -7.3500    0.0000 C   0  0  0  0  0  0  0  0  0  0  0  0
   14.8400  -22.6100    0.0000 S   0  0  0  0  0  0  0  0  0  0  0  0
   25.0600  -22.6100    0.0000 S   0  0  0  0  0  0  0  0  0  0  0  0
   29.0500  -13.6500    0.0000 C   0  0  0  0  0  0  0  0  0  0  0  0
   29.0500  -19.8800    0.0000 N   0  0  0  0  0  0  0  0  0  0  0  0
   27.8600  -10.1500    0.0000 O   0  0  0  0  0  0  0  0  0  0  0  0
   20.3700  -19.2500    0.0000 C   0  0  0  0  0  0  0  0  0  0  0  0
   21.0700  -20.4400    0.0000 C   0  0  0  0  0  0  0  0  0  0  0  0
   22.4000  -20.4400    0.0000 O   0  0  0  0  0  0  0  0  0  0  0  0
   20.3000  -21.7000    0.0000 N   0  0  0  0  0  0  0  0  0  0  0  0
   30.2400  -12.9500    0.0000 O   0  0  0  0  0  0  0  0  0  0  0  0
   27.5800  -21.0000    0.0000 C   0  0  0  0  0  0  0  0  0  0  0  0
   26.1800  -21.0000    0.0000 C   0  0  0  0  0  0  0  0  0  0  0  0
   28.2800  -22.1900    0.0000 C   0  0  0  0  0  0  0  0  0  0  0  0
   29.6800  -22.1900    0.0000 N   0  0  0  0  0  0  0  0  0  0  0  0
   30.8700  -22.9600    0.0000 C   0  0  0  0  0  0  0  0  0  0  0  0
   32.1300  -22.2600    0.0000 C   0  0  0  0  0  0  0  0  0  0  0  0
   27.5800  -23.3800    0.0000 O   0  0  0  0  0  0  0  0  0  0  0  0
   30.8700  -24.3600    0.0000 C   0  0  0  0  0  0  0  0  0  0  0  0
   29.6800  -25.0600    0.0000 O   0  0  0  0  0  0  0  0  0  0  0  0
   32.0600  -25.0600    0.0000 O   0  0  0  0  0  0  0  0  0  0  0  0
   32.1300  -20.8600    0.0000 C   0  0  0  0  0  0  0  0  0  0  0  0
   33.3200  -20.1600    0.0000 C   0  0  0  0  0  0  0  0  0  0  0  0
   33.3200  -18.7600    0.0000 C   0  0  0  0  0  0  0  0  0  0  0  0
   32.1300  -18.0600    0.0000 C   0  0  0  0  0  0  0  0  0  0  0  0
   30.8700  -18.7600    0.0000 C   0  0  0  0  0  0  0  0  0  0  0  0
   30.8700  -20.1600    0.0000 C   0  0  0  0  0  0  0  0  0  0  0  0
   32.1300  -16.6600    0.0000 O   0  0  0  0  0  0  0  0  0  0  0  0
    3.9200  -13.6500    0.0000 O   0  0  0  0  0  0  0  0  0  0  0  0
    5.1100  -11.5500    0.0000 O   0  0  0  0  0  0  0  0  0  0  0  0
  1  2  1  0
  2  3  1  0
  4  3  1  6
  4  5  1  0
  5  6  1  0
  6  7  1  0
  7  8  1  0
  8  9  1  0
  9 10  1  0
 10 11  1  0
 11 12  1  0
 12 13  1  0
 13 14  1  0
 15 14  1  0
 15 16  1  1
 16 17  1  0
 17 18  1  0
 18 19  1  0
 19 20  1  0
 20 21  1  0
 21 22  1  6
 17 23  2  0
 18 24  1  6
 20 25  2  0
 22 26  1  0
 21 27  1  0
 27 28  1  0
 28  4  1  0
  6 29  2  0
  7 30  1  6
  9 31  2  0
 10 32  1  6
 30 33  1  0
 15 34  1  0
 34 35  1  0
 35 36  1  0
 36 37  1  0
 37 38  1  0
 34 39  2  0
 26 40  2  0
 40 41  1  0
 41 42  2  0
 42 43  1  0
 43 44  2  0
 26 44  1  0
 42 45  1  0
 28 46  2  0
 37 47  2  0
 38 48  1  0
 48 49  1  0
 49 50  1  0
 51 50  1  6
 51 38  1  0
 51 52  1  0
 52 53  2  0
 52 54  1  0
 54 55  1  0
 55 56  1  0
 55 57  1  1
 56 58  2  0
 56 59  1  0
 60 59  1  1
 60 61  1  0
 60 62  1  0
 33 63  1  0
 62 64  1  0
 65 64  1  1
 62 66  2  0
 65 67  1  0
 67 68  1  0
 68 69  1  0
 65 70  1  0
 70 71  1  0
 70 72  1  1
 24 73  1  0
 73 74  1  0
 69 75  1  0
 75 76  1  0
 63 61  1  0
 67 77  2  0
 36 78  1  6
 78 79  1  0
 79 80  2  0
 79 81  1  0
 75 82  2  0
 83 76  1  0
 83 84  1  0
 84 74  1  0
 83 85  1  6
 85 86  1  0
 87 86  1  0
 87 88  1  1
 85 89  2  0
 87 90  1  0
 90 91  1  0
 90 92  2  0
 88 93  1  0
 93 94  2  0
 94 95  1  0
 95 96  2  0
 96 97  1  0
 97 98  2  0
 93 98  1  0
 96 99  1  0
  1100  1  0
  1101  2  0
M  END
