 
     RDKit          2D

 30 33  0  0  1  0  0  0  0  0999 V2000
   10.0100  -18.7600    0.0000 C   0  0  0  0  0  0  0  0  0  0  0  0
   10.0100  -20.1600    0.0000 C   0  0  0  0  0  0  0  0  0  0  0  0
   11.2224  -20.8600    0.0000 C   0  0  0  0  0  0  0  0  0  0  0  0
   12.4349  -20.1600    0.0000 C   0  0  0  0  0  0  0  0  0  0  0  0
   12.4349  -18.7600    0.0000 C   0  0  0  0  0  0  0  0  0  0  0  0
   11.2224  -18.0600    0.0000 C   0  0  0  0  0  0  0  0  0  0  0  0
   13.6473  -20.8600    0.0000 C   0  0  0  0  0  0  0  0  0  0  0  0
   14.8597  -20.1600    0.0000 C   0  0  0  0  0  0  0  0  0  0  0  0
   14.8597  -18.7600    0.0000 C   0  0  0  0  0  0  0  0  0  0  0  0
   13.6473  -18.0600    0.0000 C   0  0  0  0  0  0  0  0  0  0  0  0
   16.0722  -18.0600    0.0000 C   0  0  0  0  0  0  0  0  0  0  0  0
   16.0722  -16.6600    0.0000 C   0  0  0  0  0  0  0  0  0  0  0  0
   14.8597  -15.9600    0.0000 C   0  0  0  0  0  0  0  0  0  0  0  0
   13.6473  -16.6600    0.0000 C   0  0  0  0  0  0  0  0  0  0  0  0
   18.4970  -18.0600    0.0000 C   0  0  0  0  0  0  0  0  0  0  0  0
   18.4970  -16.6600    0.0000 C   0  0  0  0  0  0  0  0  0  0  0  0
   17.2846  -15.9600    0.0000 C   0  0  0  0  0  0  0  0  0  0  0  0
   13.6473  -22.2600    0.0000 C   0  0  0  0  0  0  0  0  0  0  0  0
   14.8618  -22.9612    0.0000 C   0  0  0  0  0  0  0  0  0  0  0  0
    8.7976  -20.8600    0.0000 O   0  0  0  0  0  0  0  0  0  0  0  0
   16.0573  -20.8515    0.0000 O   0  0  0  0  0  0  0  0  0  0  0  0
   12.4349  -17.2200    0.0000 C   0  0  0  0  0  0  0  0  0  0  0  0
   16.0722  -15.2603    0.0000 C   0  0  0  0  0  0  0  0  0  0  0  0
   17.2846  -14.5600    0.0000 C   0  0  0  0  0  0  0  0  0  0  0  0
   18.5011  -13.8577    0.0000 C   0  0  0  0  0  0  0  0  0  0  0  0
   16.0762  -13.8623    0.0000 C   0  0  0  0  0  0  0  0  0  0  0  0
   19.6986  -14.5492    0.0000 C   0  0  0  0  0  0  0  0  0  0  0  0
   20.8849  -13.8643    0.0000 C   0  0  0  0  0  0  0  0  0  0  0  0
   22.0767  -14.5526    0.0000 O   0  0  0  0  0  0  0  0  0  0  0  0
   20.8851  -12.4602    0.0000 O   0  0  0  0  0  0  0  0  0  0  0  0
  1  2  1  0
  2  3  1  0
  4  3  1  6
  4  5  1  0
  5  6  1  0
  1  6  1  0
  4  7  1  0
  7  8  1  0
  9  8  1  6
  9 10  1  0
  5 10  1  0
  9 11  1  0
 11 12  1  0
 12 13  1  0
 13 14  1  0
 10 14  1  1
 11 15  1  1
 15 16  1  0
 17 16  1  1
 12 17  1  0
  7 18  1  6
 18 19  1  0
  2 20  1  6
  8 21  1  6
  5 22  1  1
 12 23  1  1
 17 24  1  0
 24 25  1  0
 24 26  1  6
 25 27  1  0
 27 28  1  0
 28 29  1  0
 28 30  2  0
M  END
