 
     RDKit          2D

 46 49  0  0  1  0  0  0  0  0999 V2000
   18.4115  -16.8533    0.0000 C   0  0  0  0  0  0  0  0  0  0  0  0
   19.5887  -17.5353    0.0000 C   0  0  0  0  0  0  0  0  0  0  0  0
   17.2226  -17.5353    0.0000 C   0  0  0  0  0  0  0  0  0  0  0  0
   18.4172  -15.4895    0.0000 C   0  0  0  0  0  0  0  0  0  0  0  0
   19.5887  -18.9108    0.0000 C   0  0  0  0  0  0  0  0  0  0  0  0
   20.7777  -16.8533    0.0000 C   0  0  0  0  0  0  0  0  0  0  0  0
   17.2226  -18.9108    0.0000 C   0  0  0  0  0  0  0  0  0  0  0  0
   16.0393  -16.8476    0.0000 C   0  0  0  0  0  0  0  0  0  0  0  0
   17.2284  -14.8018    0.0000 C   0  0  0  0  0  0  0  0  0  0  0  0
   18.4115  -19.5926    0.0000 O   0  0  0  0  0  0  0  0  0  0  0  0
   20.7777  -19.5926    0.0000 C   0  0  0  0  0  0  0  0  0  0  0  0
   21.9551  -17.5353    0.0000 C   0  0  0  0  0  0  0  0  0  0  0  0
   20.7777  -15.4838    0.0000 O   0  0  0  0  0  0  0  0  0  0  0  0
   17.2400  -20.5833    0.0000 C   0  0  0  0  0  0  0  0  0  0  0  0
   15.6548  -19.6218    0.0000 C   0  0  0  0  0  0  0  0  0  0  0  0
   16.0393  -15.4838    0.0000 C   0  0  0  0  0  0  0  0  0  0  0  0
   17.2341  -13.4381    0.0000 C   0  0  0  0  0  0  0  0  0  0  0  0
   21.9551  -18.9108    0.0000 C   0  0  0  0  0  0  0  0  0  0  0  0
   23.1382  -19.5926    0.0000 C   0  0  0  0  0  0  0  0  0  0  0  0
   24.3271  -18.9048    0.0000 C   0  0  0  0  0  0  0  0  0  0  0  0
   25.5043  -19.5868    0.0000 C   0  0  0  0  0  0  0  0  0  0  0  0
   26.6933  -18.9048    0.0000 C   0  0  0  0  0  0  0  0  0  0  0  0
   27.8705  -19.5868    0.0000 C   0  0  0  0  0  0  0  0  0  0  0  0
   15.0589  -16.1834    0.0000 C   0  0  0  0  0  0  0  0  0  0  0  0
   16.2736  -16.8785    0.0000 C   0  0  0  0  0  0  0  0  0  0  0  0
   13.8499  -16.8843    0.0000 C   0  0  0  0  0  0  0  0  0  0  0  0
   15.0589  -14.7819    0.0000 C   0  0  0  0  0  0  0  0  0  0  0  0
   16.2736  -18.2804    0.0000 C   0  0  0  0  0  0  0  0  0  0  0  0
   17.4885  -16.1777    0.0000 C   0  0  0  0  0  0  0  0  0  0  0  0
   12.6351  -16.1834    0.0000 C   0  0  0  0  0  0  0  0  0  0  0  0
   13.7855  -18.2861    0.0000 C   0  0  0  0  0  0  0  0  0  0  0  0
   13.8499  -14.0750    0.0000 C   0  0  0  0  0  0  0  0  0  0  0  0
   17.4943  -18.9870    0.0000 C   0  0  0  0  0  0  0  0  0  0  0  0
   16.2679  -19.6762    0.0000 O   0  0  0  0  0  0  0  0  0  0  0  0
   18.7093  -16.8726    0.0000 C   0  0  0  0  0  0  0  0  0  0  0  0
   17.4885  -14.7702    0.0000 O   0  0  0  0  0  0  0  0  0  0  0  0
   12.6351  -14.7819    0.0000 C   0  0  0  0  0  0  0  0  0  0  0  0
   14.9244  -18.9929    0.0000 C   0  0  0  0  0  0  0  0  0  0  0  0
   12.5649  -18.9986    0.0000 C   0  0  0  0  0  0  0  0  0  0  0  0
   13.8556  -12.6733    0.0000 C   0  0  0  0  0  0  0  0  0  0  0  0
   18.7093  -18.2804    0.0000 C   0  0  0  0  0  0  0  0  0  0  0  0
   19.9241  -18.9753    0.0000 C   0  0  0  0  0  0  0  0  0  0  0  0
   21.1390  -18.2686    0.0000 C   0  0  0  0  0  0  0  0  0  0  0  0
   22.3478  -18.9636    0.0000 C   0  0  0  0  0  0  0  0  0  0  0  0
   23.5568  -18.2627    0.0000 C   0  0  0  0  0  0  0  0  0  0  0  0
   24.7718  -18.9578    0.0000 C   0  0  0  0  0  0  0  0  0  0  0  0
  1  2  1  0
  1  3  1  0
  1  4  1  1
  2  5  2  0
  2  6  1  0
  3  7  1  0
  3  8  1  6
  4  9  2  0
  5 10  1  0
  5 11  1  0
  6 12  2  0
  6 13  1  0
  7 14  1  0
  7 15  1  0
  8 16  1  0
  9 17  1  0
 11 18  2  0
 18 19  1  0
 19 20  1  0
 20 21  1  0
 21 22  1  0
 22 23  1  0
  7 10  1  0
  9 16  1  0
 12 18  1  0
 24 25  1  1
 24 26  1  0
 24 27  1  0
 25 28  2  0
 25 29  1  0
 26 30  1  0
 26 31  1  6
 27 32  2  0
 28 33  1  0
 28 34  1  0
 29 35  2  0
 29 36  1  0
 30 37  1  0
 31 38  1  0
 31 39  2  0
 32 40  1  0
 33 41  2  0
 41 42  1  0
 42 43  1  0
 43 44  1  0
 44 45  1  0
 45 46  1  0
 32 37  1  0
 35 41  1  0
M  END
