 
     RDKit          2D

 72 75  0  0  1  0  0  0  0  0999 V2000
   19.2500  -39.1300    0.0000 C   0  0  0  0  0  0  0  0  0  0  0  0
   19.2500  -40.5300    0.0000 C   0  0  0  0  0  0  0  0  0  0  0  0
   20.4624  -41.2300    0.0000 C   0  0  0  0  0  0  0  0  0  0  0  0
   21.6749  -40.5300    0.0000 C   0  0  0  0  0  0  0  0  0  0  0  0
   21.6749  -39.1300    0.0000 C   0  0  0  0  0  0  0  0  0  0  0  0
   20.4624  -38.4300    0.0000 C   0  0  0  0  0  0  0  0  0  0  0  0
   22.8873  -41.2300    0.0000 C   0  0  0  0  0  0  0  0  0  0  0  0
   24.0997  -40.5300    0.0000 C   0  0  0  0  0  0  0  0  0  0  0  0
   24.0997  -39.1300    0.0000 C   0  0  0  0  0  0  0  0  0  0  0  0
   22.8873  -38.4300    0.0000 C   0  0  0  0  0  0  0  0  0  0  0  0
   25.3122  -41.2300    0.0000 C   0  0  0  0  0  0  0  0  0  0  0  0
   26.5246  -40.5300    0.0000 C   0  0  0  0  0  0  0  0  0  0  0  0
   26.5246  -39.1300    0.0000 C   0  0  0  0  0  0  0  0  0  0  0  0
   25.3122  -38.4300    0.0000 C   0  0  0  0  0  0  0  0  0  0  0  0
   27.7370  -41.2300    0.0000 C   0  0  0  0  0  0  0  0  0  0  0  0
   28.9495  -40.5300    0.0000 C   0  0  0  0  0  0  0  0  0  0  0  0
   28.9495  -39.1300    0.0000 O   0  0  0  0  0  0  0  0  0  0  0  0
   27.7370  -38.4300    0.0000 C   0  0  0  0  0  0  0  0  0  0  0  0
   20.4624  -42.6298    0.0000 C   0  0  0  0  0  0  0  0  0  0  0  0
   21.6851  -37.7301    0.0000 C   0  0  0  0  0  0  0  0  0  0  0  0
   24.0997  -37.7300    0.0000 C   0  0  0  0  0  0  0  0  0  0  0  0
   27.7370  -37.0300    0.0000 C   0  0  0  0  0  0  0  0  0  0  0  0
   28.9366  -36.3373    0.0000 O   0  0  0  0  0  0  0  0  0  0  0  0
   26.5119  -36.3226    0.0000 C   0  0  0  0  0  0  0  0  0  0  0  0
   30.1846  -41.2434    0.0000 O   0  0  0  0  0  0  0  0  0  0  0  0
   27.7370  -42.6300    0.0000 C   0  0  0  0  0  0  0  0  0  0  0  0
   28.9367  -43.3226    0.0000 O   0  0  0  0  0  0  0  0  0  0  0  0
   30.1491  -44.0226    0.0000 C   0  0  0  0  0  0  0  0  0  0  0  0
   30.1490  -45.4298    0.0000 C   0  0  0  0  0  0  0  0  0  0  0  0
   31.3614  -46.1299    0.0000 C   0  0  0  0  0  0  0  0  0  0  0  0
   32.5739  -45.4300    0.0000 C   0  0  0  0  0  0  0  0  0  0  0  0
   32.5740  -44.0228    0.0000 C   0  0  0  0  0  0  0  0  0  0  0  0
   31.3616  -43.3227    0.0000 O   0  0  0  0  0  0  0  0  0  0  0  0
   33.7653  -43.3350    0.0000 C   0  0  0  0  0  0  0  0  0  0  0  0
   28.9523  -46.1208    0.0000 O   0  0  0  0  0  0  0  0  0  0  0  0
   27.7647  -45.4350    0.0000 C   0  0  0  0  0  0  0  0  0  0  0  0
   31.3613  -47.5300    0.0000 O   0  0  0  0  0  0  0  0  0  0  0  0
   33.7682  -46.1199    0.0000 O   0  0  0  0  0  0  0  0  0  0  0  0
   34.9552  -45.4348    0.0000 C   0  0  0  0  0  0  0  0  0  0  0  0
   36.1465  -46.1229    0.0000 C   0  0  0  0  0  0  0  0  0  0  0  0
   34.9555  -44.0302    0.0000 O   0  0  0  0  0  0  0  0  0  0  0  0
   36.1463  -47.5298    0.0000 C   0  0  0  0  0  0  0  0  0  0  0  0
   37.3586  -48.2299    0.0000 C   0  0  0  0  0  0  0  0  0  0  0  0
   38.5712  -47.5301    0.0000 C   0  0  0  0  0  0  0  0  0  0  0  0
   38.5714  -46.1233    0.0000 C   0  0  0  0  0  0  0  0  0  0  0  0
   37.3590  -45.4231    0.0000 C   0  0  0  0  0  0  0  0  0  0  0  0
   34.9141  -48.2412    0.0000 C   0  0  0  0  0  0  0  0  0  0  0  0
   33.7089  -47.5453    0.0000 C   0  0  0  0  0  0  0  0  0  0  0  0
   37.3584  -49.6298    0.0000 Cl  0  0  0  0  0  0  0  0  0  0  0  0
   39.7826  -48.2297    0.0000 O   0  0  0  0  0  0  0  0  0  0  0  0
   39.7800  -45.4257    0.0000 Cl  0  0  0  0  0  0  0  0  0  0  0  0
   37.3593  -44.0302    0.0000 O   0  0  0  0  0  0  0  0  0  0  0  0
   20.6850  -39.5401    0.0000 O   0  0  0  0  0  0  0  0  0  0  0  0
   18.0376  -38.4300    0.0000 C   0  0  0  0  0  0  0  0  0  0  0  0
   16.8421  -39.1204    0.0000 C   0  0  0  0  0  0  0  0  0  0  0  0
   20.4624  -37.0302    0.0000 O   0  0  0  0  0  0  0  0  0  0  0  0
   20.4624  -35.6302    0.0000 C   0  0  0  0  0  0  0  0  0  0  0  0
   21.6580  -34.9397    0.0000 O   0  0  0  0  0  0  0  0  0  0  0  0
   21.6578  -33.5397    0.0000 C   0  0  0  0  0  0  0  0  0  0  0  0
   20.4453  -32.8398    0.0000 C   0  0  0  0  0  0  0  0  0  0  0  0
   19.2497  -33.5303    0.0000 C   0  0  0  0  0  0  0  0  0  0  0  0
   19.2499  -34.9303    0.0000 C   0  0  0  0  0  0  0  0  0  0  0  0
   18.0377  -35.6303    0.0000 O   0  0  0  0  0  0  0  0  0  0  0  0
   18.0373  -32.8305    0.0000 O   0  0  0  0  0  0  0  0  0  0  0  0
   22.8532  -32.8490    0.0000 C   0  0  0  0  0  0  0  0  0  0  0  0
   22.8453  -34.2251    0.0000 C   0  0  0  0  0  0  0  0  0  0  0  0
   20.4452  -31.4300    0.0000 O   0  0  0  0  0  0  0  0  0  0  0  0
   19.2288  -30.7279    0.0000 C   0  0  0  0  0  0  0  0  0  0  0  0
   18.0315  -31.4194    0.0000 O   0  0  0  0  0  0  0  0  0  0  0  0
   19.2287  -29.3302    0.0000 C   0  0  0  0  0  0  0  0  0  0  0  0
   18.0322  -28.6394    0.0000 C   0  0  0  0  0  0  0  0  0  0  0  0
   20.4570  -28.6207    0.0000 C   0  0  0  0  0  0  0  0  0  0  0  0
  1  2  1  0
  2  3  2  0
  3  4  1  0
  5  6  1  0
  1  6  1  0
  4  7  1  0
  7  8  1  0
  9 10  1  0
  5 10  2  0
  8 11  2  0
 11 12  1  0
 13 14  1  0
  9 14  2  0
 12 15  2  0
 15 16  1  0
 16 17  1  0
 17 18  1  0
 18 13  1  1
  3 19  1  0
  5 20  1  0
  9 21  1  0
 18 22  1  0
 22 23  1  0
 22 24  1  1
 16 25  2  0
 15 26  1  0
 26 27  1  0
 28 27  1  6
 28 29  1  0
 29 30  1  0
 30 31  1  0
 31 32  1  0
 32 33  1  0
 28 33  1  0
 32 34  1  6
 29 35  1  6
 35 36  1  0
 30 37  1  6
 31 38  1  1
 38 39  1  0
 39 40  1  0
 39 41  2  0
 40 42  2  0
 42 43  1  0
 43 44  2  0
 44 45  1  0
 45 46  2  0
 40 46  1  0
 42 47  1  0
 47 48  1  0
 43 49  1  0
 44 50  1  0
 45 51  1  0
 46 52  1  0
  4 53  1  1
  1 54  1  6
 54 55  1  0
  6 56  1  1
 57 56  1  1
 57 58  1  0
 58 59  1  0
 59 60  1  0
 60 61  1  0
 61 62  1  0
 57 62  1  0
 62 63  1  1
 61 64  1  1
 59 65  1  0
 59 66  1  0
 60 67  1  6
 67 68  1  0
 68 69  2  0
 68 70  1  0
 70 71  1  0
 70 72  1  0
M  END
