117723179
     RDKit          2D

 95 98  0  0  1  0  0  0  0  0999 V2000
   25.4463   12.9306    0.0000 S   0  0  0  0  0  0  0  0  0  0  0  0
    8.7768  -10.6019    0.0000 O   0  0  0  0  0  0  0  0  0  0  0  0
   10.7448   -8.3013    0.0000 O   0  0  0  0  0  0  0  0  0  0  0  0
    9.8788   -9.8013    0.0000 O   0  0  0  0  0  0  0  0  0  0  0  0
    7.0826  -10.9620    0.0000 O   0  0  0  0  0  0  0  0  0  0  0  0
   14.2089   -7.3013    0.0000 O   0  0  0  0  0  0  0  0  0  0  0  0
    5.0611  -13.9475    0.0000 O   0  0  0  0  0  0  0  0  0  0  0  0
   13.3429   -3.8013    0.0000 O   0  0  0  0  0  0  0  0  0  0  0  0
   15.9409   -1.3013    0.0000 O   0  0  0  0  0  0  0  0  0  0  0  0
   16.8070   -2.8013    0.0000 O   0  0  0  0  0  0  0  0  0  0  0  0
   17.6730    6.6987    0.0000 O   0  0  0  0  0  0  0  0  0  0  0  0
   21.1371    7.6987    0.0000 O   0  0  0  0  0  0  0  0  0  0  0  0
   23.9906   11.3139    0.0000 O   0  0  0  0  0  0  0  0  0  0  0  0
   22.2305   14.3624    0.0000 O   0  0  0  0  0  0  0  0  0  0  0  0
   18.5390    3.1987    0.0000 O   0  0  0  0  0  0  0  0  0  0  0  0
   14.2089    7.6987    0.0000 O   0  0  0  0  0  0  0  0  0  0  0  0
   10.7448  -11.3013    0.0000 N   0  0  0  0  0  0  0  0  0  0  0  0
   12.4768   -7.3013    0.0000 N   0  0  0  0  0  0  0  0  0  0  0  0
    6.5474  -12.6093    0.0000 N   0  0  0  0  0  0  0  0  0  0  0  0
   14.2089   -5.3013    0.0000 N   0  0  0  0  0  0  0  0  0  0  0  0
   15.0749   -2.8013    0.0000 N   0  0  0  0  0  0  0  0  0  0  0  0
   22.8691   12.6987    0.0000 N   0  0  0  0  0  0  0  0  0  0  0  0
   19.4050    7.6987    0.0000 N   0  0  0  0  0  0  0  0  0  0  0  0
   18.5390    5.1987    0.0000 N   0  0  0  0  0  0  0  0  0  0  0  0
   16.8070    3.1987    0.0000 N   0  0  0  0  0  0  0  0  0  0  0  0
   15.9409    7.6987    0.0000 N   0  0  0  0  0  0  0  0  0  0  0  0
   15.0749    9.1987    0.0000 N   0  0  0  0  0  0  0  0  0  0  0  0
    9.9358  -11.8890    0.0000 C   0  0  0  0  0  0  0  0  0  0  0  0
   10.2448  -12.8401    0.0000 C   0  0  0  0  0  0  0  0  0  0  0  0
    8.9847  -11.5800    0.0000 C   0  0  0  0  0  0  0  0  0  0  0  0
   11.2448  -12.8401    0.0000 C   0  0  0  0  0  0  0  0  0  0  0  0
   11.5538  -11.8890    0.0000 C   0  0  0  0  0  0  0  0  0  0  0  0
    8.2416  -12.2492    0.0000 C   0  0  0  0  0  0  0  0  0  0  0  0
   10.7448  -10.3013    0.0000 C   0  0  0  0  0  0  0  0  0  0  0  0
   12.4768   -8.3013    0.0000 C   0  0  0  0  0  0  0  0  0  0  0  0
   11.6108   -8.8013    0.0000 C   0  0  0  0  0  0  0  0  0  0  0  0
   11.6108   -9.8013    0.0000 C   0  0  0  0  0  0  0  0  0  0  0  0
   13.3429   -8.8013    0.0000 C   0  0  0  0  0  0  0  0  0  0  0  0
    8.4495  -13.2273    0.0000 C   0  0  0  0  0  0  0  0  0  0  0  0
    7.2905  -11.9401    0.0000 C   0  0  0  0  0  0  0  0  0  0  0  0
   13.3429   -9.8013    0.0000 C   0  0  0  0  0  0  0  0  0  0  0  0
   14.2089   -8.3013    0.0000 C   0  0  0  0  0  0  0  0  0  0  0  0
    7.8258  -10.2929    0.0000 C   0  0  0  0  0  0  0  0  0  0  0  0
   13.3429   -6.8013    0.0000 C   0  0  0  0  0  0  0  0  0  0  0  0
   13.3429   -5.8013    0.0000 C   0  0  0  0  0  0  0  0  0  0  0  0
   11.6108   -6.8013    0.0000 C   0  0  0  0  0  0  0  0  0  0  0  0
    5.5963  -12.3003    0.0000 C   0  0  0  0  0  0  0  0  0  0  0  0
   14.2089  -10.3013    0.0000 C   0  0  0  0  0  0  0  0  0  0  0  0
   12.4768   -5.3013    0.0000 C   0  0  0  0  0  0  0  0  0  0  0  0
    9.8788   -8.8013    0.0000 C   0  0  0  0  0  0  0  0  0  0  0  0
    4.8532  -12.9694    0.0000 C   0  0  0  0  0  0  0  0  0  0  0  0
    5.3884  -11.3221    0.0000 C   0  0  0  0  0  0  0  0  0  0  0  0
   11.6108   -5.8013    0.0000 C   0  0  0  0  0  0  0  0  0  0  0  0
   12.4768   -4.3013    0.0000 C   0  0  0  0  0  0  0  0  0  0  0  0
   14.2089   -4.3013    0.0000 C   0  0  0  0  0  0  0  0  0  0  0  0
    3.9021  -12.6604    0.0000 C   0  0  0  0  0  0  0  0  0  0  0  0
   15.0749   -3.8013    0.0000 C   0  0  0  0  0  0  0  0  0  0  0  0
   15.9409   -4.3013    0.0000 C   0  0  0  0  0  0  0  0  0  0  0  0
    3.1590  -13.3295    0.0000 C   0  0  0  0  0  0  0  0  0  0  0  0
    3.6942  -11.6822    0.0000 C   0  0  0  0  0  0  0  0  0  0  0  0
   15.9409   -5.3013    0.0000 C   0  0  0  0  0  0  0  0  0  0  0  0
   16.8070   -3.8013    0.0000 C   0  0  0  0  0  0  0  0  0  0  0  0
    2.2079  -13.0205    0.0000 C   0  0  0  0  0  0  0  0  0  0  0  0
    2.7431  -11.3732    0.0000 C   0  0  0  0  0  0  0  0  0  0  0  0
   14.2089   -2.3013    0.0000 C   0  0  0  0  0  0  0  0  0  0  0  0
   15.9409   -2.3013    0.0000 C   0  0  0  0  0  0  0  0  0  0  0  0
    2.0000  -12.0423    0.0000 C   0  0  0  0  0  0  0  0  0  0  0  0
   16.8070   -0.8013    0.0000 C   0  0  0  0  0  0  0  0  0  0  0  0
   16.8070    0.1987    0.0000 C   0  0  0  0  0  0  0  0  0  0  0  0
   15.9409    0.6987    0.0000 C   0  0  0  0  0  0  0  0  0  0  0  0
   17.6730    0.6987    0.0000 C   0  0  0  0  0  0  0  0  0  0  0  0
   19.4050    6.6987    0.0000 C   0  0  0  0  0  0  0  0  0  0  0  0
   20.2711    6.1987    0.0000 C   0  0  0  0  0  0  0  0  0  0  0  0
   17.6730    4.6987    0.0000 C   0  0  0  0  0  0  0  0  0  0  0  0
   22.0031   11.1987    0.0000 C   0  0  0  0  0  0  0  0  0  0  0  0
   21.1371   10.6987    0.0000 C   0  0  0  0  0  0  0  0  0  0  0  0
   22.0031   12.1987    0.0000 C   0  0  0  0  0  0  0  0  0  0  0  0
   21.1371    9.6987    0.0000 C   0  0  0  0  0  0  0  0  0  0  0  0
   15.9409    1.6987    0.0000 C   0  0  0  0  0  0  0  0  0  0  0  0
   17.6730    1.6987    0.0000 C   0  0  0  0  0  0  0  0  0  0  0  0
   16.8070    2.1987    0.0000 C   0  0  0  0  0  0  0  0  0  0  0  0
   18.5390    6.1987    0.0000 C   0  0  0  0  0  0  0  0  0  0  0  0
   20.2711    9.1987    0.0000 C   0  0  0  0  0  0  0  0  0  0  0  0
   16.8070    5.1987    0.0000 C   0  0  0  0  0  0  0  0  0  0  0  0
   24.4518   13.0351    0.0000 C   0  0  0  0  0  0  0  0  0  0  0  0
   23.9518   13.9012    0.0000 C   0  0  0  0  0  0  0  0  0  0  0  0
   20.2711    8.1987    0.0000 C   0  0  0  0  0  0  0  0  0  0  0  0
   21.1371    6.6987    0.0000 C   0  0  0  0  0  0  0  0  0  0  0  0
   20.2711    5.1987    0.0000 C   0  0  0  0  0  0  0  0  0  0  0  0
   23.7827   12.2920    0.0000 C   0  0  0  0  0  0  0  0  0  0  0  0
   17.6730    3.6987    0.0000 C   0  0  0  0  0  0  0  0  0  0  0  0
   22.9737   13.6933    0.0000 C   0  0  0  0  0  0  0  0  0  0  0  0
   16.8070    6.1987    0.0000 C   0  0  0  0  0  0  0  0  0  0  0  0
   15.9409    6.6987    0.0000 C   0  0  0  0  0  0  0  0  0  0  0  0
   15.0749    8.1987    0.0000 C   0  0  0  0  0  0  0  0  0  0  0  0
  1 85  1  0
 30  2  1  1
  2 43  1  0
 36  3  1  0
  3 50  1  0
  4 34  2  0
  5 40  2  0
  6 44  2  0
 51  7  1  1
  8 55  2  0
  9 66  1  0
  9 68  1  0
 10 66  2  0
 11 82  2  0
 12 87  2  0
 13 90  2  0
 14 92  2  0
 15 91  2  0
 16 95  2  0
 17 28  1  0
 17 32  1  0
 17 34  1  0
 35 18  1  1
 18 44  1  0
 18 46  1  0
 19 40  1  0
 47 19  1  0
 45 20  1  6
 20 55  1  0
 57 21  1  0
 21 65  1  0
 21 66  1  0
 22 77  1  0
 22 90  1  0
 22 92  1  0
 72 23  1  1
 23 87  1  0
 74 24  1  0
 24 82  1  0
 25 81  1  0
 25 91  1  0
 26 94  1  0
 26 95  1  0
 27 95  1  0
 28 29  1  1
 28 30  1  0
 29 31  1  0
 30 33  1  0
 31 32  1  0
 33 39  1  1
 33 40  1  0
 34 37  1  0
 35 36  1  0
 35 38  1  0
 36 37  1  1
 38 41  1  0
 38 42  1  1
 41 48  1  0
 44 45  1  0
 45 49  1  0
 47 51  1  0
 47 52  1  1
 49 53  1  0
 49 54  1  0
 51 56  1  0
 55 57  1  0
 56 59  2  0
 56 60  1  0
 57 58  1  1
 58 61  1  0
 58 62  1  0
 59 63  1  0
 60 64  2  0
 63 67  2  0
 64 67  1  0
 68 69  1  0
 69 70  2  0
 69 71  1  0
 70 79  1  0
 71 80  2  0
 72 73  1  0
 72 82  1  0
 73 88  1  0
 73 89  1  0
 74 84  1  6
 74 91  1  0
 75 76  1  0
 75 77  1  0
 76 78  1  0
 78 83  1  0
 79 81  2  0
 80 81  1  0
 83 87  1  0
 84 93  1  0
 85 86  1  0
 85 90  1  0
 86 92  1  0
 93 94  1  0
M  END
