75007581
     RDKit          2D

 62 70  0  0  1  0  0  0  0  0999 V2000
   12.8622   -0.3315    0.0000 N   0  0  0  0  0  0  0  0  0  0  0  0
   14.7289    0.7463    0.0000 N   0  0  0  0  0  0  0  0  0  0  0  0
   11.1309    2.8226    0.0000 C   0  0  0  0  0  0  0  0  0  0  0  0
   16.7618   -2.5916    0.0000 C   0  0  0  0  0  0  0  0  0  0  0  0
   10.2370    4.3573    0.0000 C   0  0  0  0  0  0  0  0  0  0  0  0
   17.8280   -4.3900    0.0000 C   0  0  0  0  0  0  0  0  0  0  0  0
   11.1309    3.8226    0.0000 C   0  0  0  0  0  0  0  0  0  0  0  0
   16.7709   -3.7688    0.0000 C   0  0  0  0  0  0  0  0  0  0  0  0
    9.3309    3.8435    0.0000 C   0  0  0  0  0  0  0  0  0  0  0  0
   18.8900   -3.7769    0.0000 C   0  0  0  0  0  0  0  0  0  0  0  0
   11.9970    2.3226    0.0000 C   0  0  0  0  0  0  0  0  0  0  0  0
   15.7333   -2.0188    0.0000 C   0  0  0  0  0  0  0  0  0  0  0  0
   12.8630    2.8226    0.0000 C   0  0  0  0  0  0  0  0  0  0  0  0
   14.7546   -2.5838    0.0000 C   0  0  0  0  0  0  0  0  0  0  0  0
   10.2370    2.2880    0.0000 C   0  0  0  0  0  0  0  0  0  0  0  0
   17.8093   -1.9541    0.0000 C   0  0  0  0  0  0  0  0  0  0  0  0
    9.3309    2.8018    0.0000 C   0  0  0  0  0  0  0  0  0  0  0  0
   18.8805   -2.5507    0.0000 C   0  0  0  0  0  0  0  0  0  0  0  0
    8.5686    4.5442    0.0000 C   0  0  0  0  0  0  0  0  0  0  0  0
   19.7937   -4.5949    0.0000 C   0  0  0  0  0  0  0  0  0  0  0  0
   11.9970    4.3226    0.0000 C   0  0  0  0  0  0  0  0  0  0  0  0
   15.7514   -4.3574    0.0000 C   0  0  0  0  0  0  0  0  0  0  0  0
   10.0269    5.3712    0.0000 C   0  0  0  0  0  0  0  0  0  0  0  0
   18.0846   -5.5817    0.0000 C   0  0  0  0  0  0  0  0  0  0  0  0
   12.8630    3.8226    0.0000 C   0  0  0  0  0  0  0  0  0  0  0  0
   14.7364   -3.7609    0.0000 C   0  0  0  0  0  0  0  0  0  0  0  0
    8.9979    5.4865    0.0000 C   0  0  0  0  0  0  0  0  0  0  0  0
   19.2970   -5.7081    0.0000 C   0  0  0  0  0  0  0  0  0  0  0  0
   11.9809    1.2811    0.0000 C   0  0  0  0  0  0  0  0  0  0  0  0
   15.7246   -0.8886    0.0000 C   0  0  0  0  0  0  0  0  0  0  0  0
   10.7890    1.8829    0.0000 C   0  0  0  0  0  0  0  0  0  0  0  0
   17.0965   -1.6493    0.0000 C   0  0  0  0  0  0  0  0  0  0  0  0
   11.1069    4.8506    0.0000 C   0  0  0  0  0  0  0  0  0  0  0  0
   16.9620   -4.8900    0.0000 C   0  0  0  0  0  0  0  0  0  0  0  0
   13.7730    2.3158    0.0000 C   0  0  0  0  0  0  0  0  0  0  0  0
   13.7802   -2.0112    0.0000 C   0  0  0  0  0  0  0  0  0  0  0  0
    8.4611    3.3502    0.0000 C   0  0  0  0  0  0  0  0  0  0  0  0
   19.7560   -3.2769    0.0000 C   0  0  0  0  0  0  0  0  0  0  0  0
   11.3541    1.5566    0.0000 C   0  0  0  0  0  0  0  0  0  0  0  0
   16.3761   -1.2527    0.0000 C   0  0  0  0  0  0  0  0  0  0  0  0
   13.7290    3.3226    0.0000 C   0  0  0  0  0  0  0  0  0  0  0  0
   13.8886   -3.0838    0.0000 C   0  0  0  0  0  0  0  0  0  0  0  0
   12.8789    0.7534    0.0000 C   0  0  0  0  0  0  0  0  0  0  0  0
   14.7373   -0.3387    0.0000 C   0  0  0  0  0  0  0  0  0  0  0  0
    7.5885    4.3456    0.0000 C   0  0  0  0  0  0  0  0  0  0  0  0
   20.7722   -4.3887    0.0000 C   0  0  0  0  0  0  0  0  0  0  0  0
   13.7810    1.2742    0.0000 C   0  0  0  0  0  0  0  0  0  0  0  0
   13.7976   -0.8812    0.0000 C   0  0  0  0  0  0  0  0  0  0  0  0
    6.9265    5.0950    0.0000 C   0  0  0  0  0  0  0  0  0  0  0  0
   21.4401   -5.1330    0.0000 C   0  0  0  0  0  0  0  0  0  0  0  0
    5.9464    4.8963    0.0000 C   0  0  0  0  0  0  0  0  0  0  0  0
   22.4186   -4.9268    0.0000 C   0  0  0  0  0  0  0  0  0  0  0  0
    5.2843    5.6457    0.0000 C   0  0  0  0  0  0  0  0  0  0  0  0
   23.0864   -5.6711    0.0000 C   0  0  0  0  0  0  0  0  0  0  0  0
    4.3042    5.4471    0.0000 C   0  0  0  0  0  0  0  0  0  0  0  0
   24.0649   -5.4649    0.0000 C   0  0  0  0  0  0  0  0  0  0  0  0
    3.6422    6.1965    0.0000 C   0  0  0  0  0  0  0  0  0  0  0  0
   24.7328   -6.2092    0.0000 C   0  0  0  0  0  0  0  0  0  0  0  0
    2.6621    5.9978    0.0000 C   0  0  0  0  0  0  0  0  0  0  0  0
   25.7113   -6.0030    0.0000 C   0  0  0  0  0  0  0  0  0  0  0  0
    2.0000    6.7472    0.0000 C   0  0  0  0  0  0  0  0  0  0  0  0
   26.3791   -6.7472    0.0000 C   0  0  0  0  0  0  0  0  0  0  0  0
  1 43  2  0
  1 48  1  0
  2 44  1  0
  2 47  2  0
  3  7  1  0
  3 11  1  0
  3 15  1  0
  3 31  1  0
  4  8  1  0
  4 12  1  0
  4 16  1  0
  4 32  1  0
  5  7  1  0
  5  9  1  0
  5 23  1  0
  5 33  1  0
  6  8  1  0
  6 10  1  0
  6 24  1  0
  6 34  1  0
  7 21  1  0
  8 22  1  0
  9 17  1  0
  9 19  1  0
  9 37  1  0
 10 18  1  0
 10 20  1  0
 10 38  1  0
 11 13  1  0
 11 29  1  0
 11 39  1  0
 12 14  1  0
 12 30  1  0
 12 40  1  0
 13 25  1  0
 13 35  1  0
 13 41  1  0
 14 26  1  0
 14 36  1  0
 14 42  1  0
 15 17  1  0
 16 18  1  0
 19 27  1  0
 19 45  1  0
 20 28  1  0
 20 46  1  0
 21 25  1  0
 22 26  1  0
 23 27  1  0
 24 28  1  0
 29 43  1  0
 30 44  1  0
 35 47  1  0
 36 48  1  0
 43 47  1  0
 44 48  2  0
 45 49  1  0
 46 50  1  0
 49 51  1  0
 50 52  1  0
 51 53  1  0
 52 54  1  0
 53 55  1  0
 54 56  1  0
 55 57  1  0
 56 58  1  0
 57 59  1  0
 58 60  1  0
 59 61  1  0
 60 62  1  0
M  END
