 
     RDKit          2D

 91 94  0  0  1  0  0  0  0  0999 V2000
   16.6600  -25.0600    0.0000 C   0  0  0  0  0  0  0  0  0  0  0  0
   16.6600  -26.4600    0.0000 C   0  0  0  0  0  0  0  0  0  0  0  0
   17.8500  -27.1600    0.0000 C   0  0  0  0  0  0  0  0  0  0  0  0
   19.1100  -26.4600    0.0000 C   0  0  0  0  0  0  0  0  0  0  0  0
   19.1100  -25.0600    0.0000 C   0  0  0  0  0  0  0  0  0  0  0  0
   17.8500  -24.3600    0.0000 C   0  0  0  0  0  0  0  0  0  0  0  0
   20.3000  -27.1600    0.0000 C   0  0  0  0  0  0  0  0  0  0  0  0
   21.4900  -26.4600    0.0000 C   0  0  0  0  0  0  0  0  0  0  0  0
   21.4900  -25.0600    0.0000 C   0  0  0  0  0  0  0  0  0  0  0  0
   20.3000  -24.3600    0.0000 C   0  0  0  0  0  0  0  0  0  0  0  0
   22.7500  -24.3600    0.0000 C   0  0  0  0  0  0  0  0  0  0  0  0
   22.7500  -22.9600    0.0000 C   0  0  0  0  0  0  0  0  0  0  0  0
   21.4900  -22.2600    0.0000 C   0  0  0  0  0  0  0  0  0  0  0  0
   20.3000  -22.9600    0.0000 C   0  0  0  0  0  0  0  0  0  0  0  0
   25.1300  -24.3600    0.0000 C   0  0  0  0  0  0  0  0  0  0  0  0
   25.1300  -22.9600    0.0000 C   0  0  0  0  0  0  0  0  0  0  0  0
   23.9400  -22.2600    0.0000 C   0  0  0  0  0  0  0  0  0  0  0  0
   15.4700  -27.1600    0.0000 O   0  0  0  0  0  0  0  0  0  0  0  0
   19.1100  -23.6600    0.0000 C   0  0  0  0  0  0  0  0  0  0  0  0
   19.1100  -22.2600    0.0000 O   0  0  0  0  0  0  0  0  0  0  0  0
   22.7500  -21.5600    0.0000 C   0  0  0  0  0  0  0  0  0  0  0  0
   23.9400  -20.7200    0.0000 C   0  0  0  0  0  0  0  0  0  0  0  0
   25.1300  -21.5600    0.0000 O   0  0  0  0  0  0  0  0  0  0  0  0
   26.5300  -22.6100    0.0000 O   0  0  0  0  0  0  0  0  0  0  0  0
   26.5300  -21.5600    0.0000 C   0  0  0  0  0  0  0  0  0  0  0  0
   27.7200  -20.8600    0.0000 C   0  0  0  0  0  0  0  0  0  0  0  0
   28.9100  -21.5600    0.0000 C   0  0  0  0  0  0  0  0  0  0  0  0
   30.1000  -20.8600    0.0000 C   0  0  0  0  0  0  0  0  0  0  0  0
   25.1524  -20.0200    0.0000 O   0  0  0  0  0  0  0  0  0  0  0  0
   22.7276  -20.0200    0.0000 C   0  0  0  0  0  0  0  0  0  0  0  0
   21.5321  -20.7104    0.0000 O   0  0  0  0  0  0  0  0  0  0  0  0
   46.7600  -20.0900    0.0000 O   0  0  0  0  0  0  0  0  0  0  0  0
   38.0100  -20.8600    0.0000 C   0  0  0  0  0  0  0  0  0  0  0  0
   39.2000  -21.5600    0.0000 C   0  0  0  0  0  0  0  0  0  0  0  0
   36.7500  -21.5600    0.0000 O   0  0  0  0  0  0  0  0  0  0  0  0
   38.0100  -19.4600    0.0000 O   0  0  0  0  0  0  0  0  0  0  0  0
   40.3900  -20.8600    0.0000 C   0  0  0  0  0  0  0  0  0  0  0  0
   41.5800  -21.5600    0.0000 C   0  0  0  0  0  0  0  0  0  0  0  0
   42.8400  -20.8600    0.0000 O   0  0  0  0  0  0  0  0  0  0  0  0
   41.5800  -22.8900    0.0000 O   0  0  0  0  0  0  0  0  0  0  0  0
   20.0200  -21.5600    0.0000 C   0  0  0  0  0  0  0  0  0  0  0  0
   18.8300  -22.2600    0.0000 C   0  0  0  0  0  0  0  0  0  0  0  0
   20.0200  -20.1600    0.0000 C   0  0  0  0  0  0  0  0  0  0  0  0
   21.2100  -22.2600    0.0000 C   0  0  0  0  0  0  0  0  0  0  0  0
   17.5700  -21.5600    0.0000 C   0  0  0  0  0  0  0  0  0  0  0  0
   18.8300  -19.4600    0.0000 C   0  0  0  0  0  0  0  0  0  0  0  0
   22.4700  -21.5600    0.0000 C   0  0  0  0  0  0  0  0  0  0  0  0
   21.2100  -23.6600    0.0000 O   0  0  0  0  0  0  0  0  0  0  0  0
   17.5700  -20.1600    0.0000 C   0  0  0  0  0  0  0  0  0  0  0  0
   16.3800  -22.2600    0.0000 N   0  0  0  0  0  0  0  0  0  0  0  0
   23.6600  -22.2600    0.0000 N   0  0  0  0  0  0  0  0  0  0  0  0
   16.3800  -19.4600    0.0000 O   0  0  0  0  0  0  0  0  0  0  0  0
   15.1900  -21.5600    0.0000 C   0  0  0  0  0  0  0  0  0  0  0  0
   24.8500  -21.5600    0.0000 C   0  0  0  0  0  0  0  0  0  0  0  0
   13.9300  -22.2600    0.0000 O   0  0  0  0  0  0  0  0  0  0  0  0
   26.0400  -22.2600    0.0000 C   0  0  0  0  0  0  0  0  0  0  0  0
   24.8500  -20.1600    0.0000 C   0  0  0  0  0  0  0  0  0  0  0  0
   27.3000  -21.5600    0.0000 C   0  0  0  0  0  0  0  0  0  0  0  0
   27.3000  -20.1600    0.0000 C   0  0  0  0  0  0  0  0  0  0  0  0
   28.4900  -22.2600    0.0000 C   0  0  0  0  0  0  0  0  0  0  0  0
   28.4900  -19.4600    0.0000 C   0  0  0  0  0  0  0  0  0  0  0  0
   29.6800  -21.5600    0.0000 C   0  0  0  0  0  0  0  0  0  0  0  0
   29.6800  -20.1600    0.0000 C   0  0  0  0  0  0  0  0  0  0  0  0
   30.9400  -19.3900    0.0000 O   0  0  0  0  0  0  0  0  0  0  0  0
   32.1300  -20.0900    0.0000 C   0  0  0  0  0  0  0  0  0  0  0  0
   46.6900  -21.9100    0.0000 O   0  0  0  0  0  0  0  0  0  0  0  0
   20.0200  -21.5600    0.0000 C   0  0  0  0  0  0  0  0  0  0  0  0
   18.8300  -22.2600    0.0000 C   0  0  0  0  0  0  0  0  0  0  0  0
   17.5700  -21.5600    0.0000 C   0  0  0  0  0  0  0  0  0  0  0  0
   17.5700  -20.1600    0.0000 C   0  0  0  0  0  0  0  0  0  0  0  0
   16.3800  -19.4600    0.0000 O   0  0  0  0  0  0  0  0  0  0  0  0
   18.8300  -19.4600    0.0000 C   0  0  0  0  0  0  0  0  0  0  0  0
   20.0200  -20.1600    0.0000 C   0  0  0  0  0  0  0  0  0  0  0  0
   16.3800  -22.2600    0.0000 N   0  0  0  0  0  0  0  0  0  0  0  0
   15.1900  -21.5600    0.0000 C   0  0  0  0  0  0  0  0  0  0  0  0
   13.9300  -22.2600    0.0000 O   0  0  0  0  0  0  0  0  0  0  0  0
   21.2100  -22.2600    0.0000 C   0  0  0  0  0  0  0  0  0  0  0  0
   22.4700  -21.5600    0.0000 C   0  0  0  0  0  0  0  0  0  0  0  0
   23.6600  -22.2600    0.0000 N   0  0  0  0  0  0  0  0  0  0  0  0
   24.8500  -21.5600    0.0000 C   0  0  0  0  0  0  0  0  0  0  0  0
   26.0400  -22.2600    0.0000 C   0  0  0  0  0  0  0  0  0  0  0  0
   27.3000  -21.5600    0.0000 C   0  0  0  0  0  0  0  0  0  0  0  0
   27.3000  -20.1600    0.0000 C   0  0  0  0  0  0  0  0  0  0  0  0
   28.4900  -19.4600    0.0000 C   0  0  0  0  0  0  0  0  0  0  0  0
   29.6800  -20.1600    0.0000 C   0  0  0  0  0  0  0  0  0  0  0  0
   30.9400  -19.3900    0.0000 O   0  0  0  0  0  0  0  0  0  0  0  0
   32.1300  -20.0900    0.0000 C   0  0  0  0  0  0  0  0  0  0  0  0
   29.6800  -21.5600    0.0000 C   0  0  0  0  0  0  0  0  0  0  0  0
   28.4900  -22.2600    0.0000 C   0  0  0  0  0  0  0  0  0  0  0  0
   24.8500  -20.1600    0.0000 C   0  0  0  0  0  0  0  0  0  0  0  0
   21.2100  -23.6600    0.0000 O   0  0  0  0  0  0  0  0  0  0  0  0
  1  2  1  0
  2  3  1  0
  3  4  2  0
  4  5  1  0
  5  6  1  0
  1  6  2  0
  4  7  1  0
  7  8  1  0
  9  8  1  6
  9 10  1  0
  5 10  1  0
  9 11  1  0
 11 12  1  0
 12 13  1  0
 13 14  1  0
 10 14  1  1
 11 15  1  1
 16 15  1  6
 16 17  1  0
 12 17  1  0
  2 18  2  0
  5 19  1  1
 14 20  1  1
 12 21  1  1
 17 22  1  1
 17 23  1  0
 16 24  1  0
 23 25  1  0
 25 24  1  0
 26 27  1  0
 26 25  1  0
 27 28  1  0
 22 29  2  0
 22 30  1  0
 30 31  1  0
 33 34  1  0
 33 35  1  0
 33 36  2  0
 34 37  2  0
 37 38  1  0
 38 39  1  0
 38 40  2  0
 41 42  2  0
 41 43  1  0
 41 44  1  0
 42 45  1  0
 43 46  2  0
 44 47  1  0
 44 48  1  0
 45 49  2  0
 45 50  1  0
 47 51  1  0
 49 52  1  0
 50 53  1  0
 51 54  1  0
 53 55  2  0
 54 56  1  0
 54 57  1  0
 56 58  1  0
 58 59  2  0
 58 60  1  0
 59 61  1  0
 60 62  2  0
 61 63  2  0
 63 64  1  0
 64 65  1  0
 46 49  1  0
 62 63  1  0
 67 68  2  0
 67 73  1  0
 67 77  1  0
 68 69  1  0
 73 72  2  0
 77 78  1  0
 77 91  1  0
 69 70  2  0
 69 74  1  0
 78 79  1  0
 70 71  1  0
 74 75  1  0
 79 80  1  0
 75 76  2  0
 80 81  1  0
 80 90  1  0
 81 82  1  0
 82 83  2  0
 82 89  1  0
 83 84  1  0
 89 88  2  0
 84 85  2  0
 85 86  1  0
 86 87  1  0
 72 70  1  0
 88 85  1  0
M  END
