 
 
 
 46 51  0  0  0  0  0  0  0  0999 V2000
   17.0057  -25.5021    0.0000 C   0  0  0  0  0  0  0  0  0  0  0  0
   17.0057  -26.9069    0.0000 C   0  0  0  0  0  0  0  0  0  0  0  0
   18.1997  -27.6092    0.0000 C   0  0  0  0  0  0  0  0  0  0  0  0
   19.4639  -26.9069    0.0000 C   0  0  0  0  0  0  0  0  0  0  0  0
   19.4639  -25.5021    0.0000 C   0  0  0  0  0  0  0  0  0  0  0  0
   18.1997  -24.7997    0.0000 C   0  0  0  0  0  0  0  0  0  0  0  0
   20.6579  -27.6092    0.0000 N   0  0  0  0  0  0  0  0  0  0  0  0
   21.8519  -26.9069    0.0000 C   0  0  0  0  0  0  0  0  0  0  0  0
   23.0459  -27.6092    0.0000 C   0  0  0  0  0  0  0  0  0  0  0  0
   21.8519  -25.5021    0.0000 O   0  0  0  0  0  0  0  0  0  0  0  0
   24.2399  -26.9069    0.0000 C   0  0  0  0  0  0  0  0  0  0  0  0
   25.4340  -27.6092    0.0000 N   0  0  0  0  0  0  0  0  0  0  0  0
   24.2399  -25.5021    0.0000 O   0  0  0  0  0  0  0  0  0  0  0  0
   26.6280  -26.9069    0.0000 C   0  0  0  0  0  0  0  0  0  0  0  0
   27.8219  -27.6092    0.0000 C   0  0  0  0  0  0  0  0  0  0  0  0
   29.0862  -26.9069    0.0000 C   0  0  0  0  0  0  0  0  0  0  0  0
   29.0862  -25.5021    0.0000 C   0  0  0  0  0  0  0  0  0  0  0  0
   27.8922  -24.7997    0.0000 C   0  0  0  0  0  0  0  0  0  0  0  0
   26.6280  -25.5021    0.0000 C   0  0  0  0  0  0  0  0  0  0  0  0
   15.8116  -27.6092    0.0000 F   0  0  0  0  0  0  0  0  0  0  0  0
   15.8116  -24.7997    0.0000 O   0  0  0  0  0  0  0  0  0  0  0  0
   30.2802  -24.7997    0.0000 F   0  0  0  0  0  0  0  0  0  0  0  0
   22.3435  -28.8032    0.0000 C   0  0  0  0  0  0  0  0  0  0  0  0
   23.7483  -28.8032    0.0000 C   0  0  0  0  0  0  0  0  0  0  0  0
   18.1826  -23.3725    0.0000 C   0  0  0  0  0  0  0  0  0  0  0  0
   19.3781  -22.6630    0.0000 C   0  0  0  0  0  0  0  0  0  0  0  0
   19.3614  -21.2606    0.0000 C   0  0  0  0  0  0  0  0  0  0  0  0
   18.1384  -20.5739    0.0000 N   0  0  0  0  0  0  0  0  0  0  0  0
   16.9429  -21.2833    0.0000 C   0  0  0  0  0  0  0  0  0  0  0  0
   16.9597  -22.6858    0.0000 C   0  0  0  0  0  0  0  0  0  0  0  0
   20.6011  -23.3498    0.0000 C   0  0  0  0  0  0  0  0  0  0  0  0
   21.8072  -22.6340    0.0000 C   0  0  0  0  0  0  0  0  0  0  0  0
   21.7905  -21.2315    0.0000 C   0  0  0  0  0  0  0  0  0  0  0  0
   20.5676  -20.5449    0.0000 C   0  0  0  0  0  0  0  0  0  0  0  0
   23.0218  -23.3156    0.0000 O   0  0  0  0  0  0  0  0  0  0  0  0
   24.2227  -22.6026    0.0000 C   0  0  0  0  0  0  0  0  0  0  0  0
   23.0294  -20.4969    0.0000 O   0  0  0  0  0  0  0  0  0  0  0  0
   24.2352  -21.1746    0.0000 C   0  0  0  0  0  0  0  0  0  0  0  0
   25.4558  -20.4504    0.0000 C   0  0  0  0  0  0  0  0  0  0  0  0
   26.6729  -21.1339    0.0000 C   0  0  0  0  0  0  0  0  0  0  0  0
   27.8672  -20.4250    0.0000 N   0  0  0  0  0  0  0  0  0  0  0  0
   29.0747  -21.1031    0.0000 C   0  0  0  0  0  0  0  0  0  0  0  0
   30.2108  -20.4575    0.0000 C   0  0  0  0  0  0  0  0  0  0  0  0
   30.2642  -18.9849    0.0000 O   0  0  0  0  0  0  0  0  0  0  0  0
   29.0567  -18.3069    0.0000 C   0  0  0  0  0  0  0  0  0  0  0  0
   27.8505  -19.0226    0.0000 C   0  0  0  0  0  0  0  0  0  0  0  0
  1  2  2  0     0  0
  2  3  1  0     0  0
  3  4  2  0     0  0
  4  5  1  0     0  0
  5  6  2  0     0  0
  1  6  1  0     0  0
  4  7  1  0     0  0
  7  8  1  0     0  0
  8  9  1  0     0  0
  8 10  2  0     0  0
  9 11  1  0     0  0
 11 12  1  0     0  0
 11 13  2  0     0  0
 12 14  1  0     0  0
 14 15  1  0     0  0
 15 16  2  0     0  0
 16 17  1  0     0  0
 17 18  2  0     0  0
 18 19  1  0     0  0
 14 19  2  0     0  0
  2 20  1  0     0  0
  1 21  1  0     0  0
 17 22  1  0     0  0
 23 24  1  0     0  0
 24  9  1  0     0  0
  9 23  1  0     0  0
  6 25  1  0     0  0
 25 26  2  0     0  0
 26 27  1  0     0  0
 27 28  2  0     0  0
 28 29  1  0     0  0
 29 30  2  0     0  0
 25 30  1  0     0  0
 26 31  1  0     0  0
 31 32  2  0     0  0
 32 33  1  0     0  0
 33 34  2  0     0  0
 27 34  1  0     0  0
 32 35  1  0     0  0
 35 36  1  0     0  0
 33 37  1  0     0  0
 37 38  1  0     0  0
 38 39  1  0     0  0
 39 40  1  0     0  0
 40 41  1  0     0  0
 41 42  1  0     0  0
 42 43  1  0     0  0
 43 44  1  0     0  0
 44 45  1  0     0  0
 45 46  1  0     0  0
 41 46  1  0     0  0
M  END
