72941968
     RDKit          2D

308329  0  0  1  0  0  0  0  0999 V2000
   34.7732    9.8672    0.0000 S   0  0  0  0  0  0  0  0  0  0  0  0
   36.6983    4.4825    0.0000 S   0  0  0  0  0  0  0  0  0  0  0  0
   25.9033    6.5536    0.0000 S   0  0  0  0  0  0  0  0  0  0  0  0
   21.4069    3.2312    0.0000 S   0  0  0  0  0  0  0  0  0  0  0  0
   35.4810   11.5416    0.0000 S   0  0  0  0  0  0  0  0  0  0  0  0
   26.5999   10.7681    0.0000 S   0  0  0  0  0  0  0  0  0  0  0  0
   31.5522    9.6419    0.0000 S   0  0  0  0  0  0  0  0  0  0  0  0
   38.4903    4.7232    0.0000 S   0  0  0  0  0  0  0  0  0  0  0  0
   15.9293    4.3495    0.0000 S   0  0  0  0  0  0  0  0  0  0  0  0
   13.0951    9.1685    0.0000 S   0  0  0  0  0  0  0  0  0  0  0  0
   39.2303    1.3476    0.0000 S   0  0  0  0  0  0  0  0  0  0  0  0
   11.4263   13.0131    0.0000 S   0  0  0  0  0  0  0  0  0  0  0  0
   36.5203   -1.6861    0.0000 S   0  0  0  0  0  0  0  0  0  0  0  0
   35.7679    9.9700    0.0000 P   0  0  0  0  0  0  0  0  0  0  0  0
   35.9563    5.1530    0.0000 P   0  0  0  0  0  0  0  0  0  0  0  0
   24.9255    6.7632    0.0000 P   0  0  0  0  0  0  0  0  0  0  0  0
   20.9084    4.0981    0.0000 P   0  0  0  0  0  0  0  0  0  0  0  0
   34.4866   11.6478    0.0000 P   0  0  0  0  0  0  0  0  0  0  0  0
   27.0984    9.9012    0.0000 P   0  0  0  0  0  0  0  0  0  0  0  0
   30.8843   10.3862    0.0000 P   0  0  0  0  0  0  0  0  0  0  0  0
   39.0767    3.9132    0.0000 P   0  0  0  0  0  0  0  0  0  0  0  0
   16.2400    5.3000    0.0000 P   0  0  0  0  0  0  0  0  0  0  0  0
   14.0094    9.5737    0.0000 P   0  0  0  0  0  0  0  0  0  0  0  0
   39.9723    0.6772    0.0000 P   0  0  0  0  0  0  0  0  0  0  0  0
   11.1156   12.0626    0.0000 P   0  0  0  0  0  0  0  0  0  0  0  0
   36.5186   -2.6861    0.0000 P   0  0  0  0  0  0  0  0  0  0  0  0
   33.4661   10.2483    0.0000 Na  0  0  0  0  0 15  0  0  0  0  0  0
   35.4239    6.8012    0.0000 Na  0  0  0  0  0 15  0  0  0  0  0  0
   37.1709   10.9857    0.0000 Na  0  0  0  0  0 15  0  0  0  0  0  0
   19.4100    4.9667    0.0000 Na  0  0  0  0  0 15  0  0  0  0  0  0
   39.2547    2.1903    0.0000 Na  0  0  0  0  0 15  0  0  0  0  0  0
   23.2774    6.2308    0.0000 Na  0  0  0  0  0 15  0  0  0  0  0  0
   41.6659    0.3141    0.0000 Na  0  0  0  0  0 15  0  0  0  0  0  0
   15.8828    6.9948    0.0000 Na  0  0  0  0  0 15  0  0  0  0  0  0
   35.0171   -3.5495    0.0000 Na  0  0  0  0  0 15  0  0  0  0  0  0
    9.8265   10.9059    0.0000 Na  0  0  0  0  0 15  0  0  0  0  0  0
   15.0299   10.9732    0.0000 Na  0  0  0  0  0 15  0  0  0  0  0  0
   30.3462    8.7399    0.0000 Na  0  0  0  0  0 15  0  0  0  0  0  0
   28.5968    9.0327    0.0000 Na  0  0  0  0  0 15  0  0  0  0  0  0
   37.9841    7.4823    0.0000 O   0  0  0  0  0  0  0  0  0  0  0  0
   37.1166   13.2137    0.0000 O   0  0  0  0  0  0  0  0  0  0  0  0
   24.2226    3.7560    0.0000 O   0  0  0  0  0  0  0  0  0  0  0  0
   36.5420    2.1487    0.0000 O   0  0  0  0  0  0  0  0  0  0  0  0
   23.5866    9.8140    0.0000 O   0  0  0  0  0  0  0  0  0  0  0  0
   18.2033    2.6083    0.0000 O   0  0  0  0  0  0  0  0  0  0  0  0
   31.5943   13.6415    0.0000 O   0  0  0  0  0  0  0  0  0  0  0  0
   28.4697   12.9377    0.0000 O   0  0  0  0  0  0  0  0  0  0  0  0
   42.0001    3.0065    0.0000 O   0  0  0  0  0  0  0  0  0  0  0  0
   13.3227    6.3135    0.0000 O   0  0  0  0  0  0  0  0  0  0  0  0
   36.6267    5.8949    0.0000 O   0  0  0  0  0  0  0  0  0  0  0  0
   35.6651   10.9647    0.0000 O   0  0  0  0  0  0  0  0  0  0  0  0
   24.7159    5.7854    0.0000 O   0  0  0  0  0  0  0  0  0  0  0  0
   20.0416    3.5996    0.0000 O   0  0  0  0  0  0  0  0  0  0  0  0
   26.2315    9.4027    0.0000 O   0  0  0  0  0  0  0  0  0  0  0  0
   14.2898   13.0753    0.0000 O   0  0  0  0  0  0  0  0  0  0  0  0
   33.4923   11.7541    0.0000 O   0  0  0  0  0  0  0  0  0  0  0  0
   38.2666    3.3268    0.0000 O   0  0  0  0  0  0  0  0  0  0  0  0
   29.9338   10.6969    0.0000 O   0  0  0  0  0  0  0  0  0  0  0  0
   15.2895    5.6107    0.0000 O   0  0  0  0  0  0  0  0  0  0  0  0
   40.6427    1.4192    0.0000 O   0  0  0  0  0  0  0  0  0  0  0  0
   39.6065   -2.6344    0.0000 O   0  0  0  0  0  0  0  0  0  0  0  0
   13.6042   10.4879    0.0000 O   0  0  0  0  0  0  0  0  0  0  0  0
   36.7626   10.0729    0.0000 O   0  0  0  0  0  0  0  0  0  0  0  0
   35.2143    5.8234    0.0000 O   0  0  0  0  0  0  0  0  0  0  0  0
   23.9478    6.9728    0.0000 O   0  0  0  0  0  0  0  0  0  0  0  0
   20.4100    4.9649    0.0000 O   0  0  0  0  0  0  0  0  0  0  0  0
   34.3804   10.6535    0.0000 O   0  0  0  0  0  0  0  0  0  0  0  0
   27.5969    9.0343    0.0000 O   0  0  0  0  0  0  0  0  0  0  0  0
    7.6603   11.4297    0.0000 O   0  0  0  0  0  0  0  0  0  0  0  0
   30.1400    9.7184    0.0000 O   0  0  0  0  0  0  0  0  0  0  0  0
   10.1651   12.3733    0.0000 O   0  0  0  0  0  0  0  0  0  0  0  0
   39.6631    3.1031    0.0000 O   0  0  0  0  0  0  0  0  0  0  0  0
   16.5506    6.2505    0.0000 O   0  0  0  0  0  0  0  0  0  0  0  0
   14.9236    9.9788    0.0000 O   0  0  0  0  0  0  0  0  0  0  0  0
   37.5186   -2.6878    0.0000 O   0  0  0  0  0  0  0  0  0  0  0  0
   40.7143    0.0068    0.0000 O   0  0  0  0  0  0  0  0  0  0  0  0
   31.9566   14.9192    0.0000 O   0  0  0  0  0  0  0  0  0  0  0  0
   25.4803   12.7338    0.0000 O   0  0  0  0  0  0  0  0  0  0  0  0
   10.8050   11.1121    0.0000 O   0  0  0  0  0  0  0  0  0  0  0  0
   11.0307    8.2435    0.0000 O   0  0  0  0  0  0  0  0  0  0  0  0
   42.3549   10.1002    0.0000 O   0  0  0  0  0  0  0  0  0  0  0  0
   38.0958   18.2135    0.0000 O   0  0  0  0  0  0  0  0  0  0  0  0
   24.6562   -1.3204    0.0000 O   0  0  0  0  0  0  0  0  0  0  0  0
   29.3863   17.2416    0.0000 O   0  0  0  0  0  0  0  0  0  0  0  0
   33.4675   -1.9139    0.0000 O   0  0  0  0  0  0  0  0  0  0  0  0
   25.1241   16.1795    0.0000 O   0  0  0  0  0  0  0  0  0  0  0  0
   40.3455   -4.3157    0.0000 O   0  0  0  0  0  0  0  0  0  0  0  0
   36.5168   -3.6861    0.0000 O   0  0  0  0  0  0  0  0  0  0  0  0
   35.5186   -2.6844    0.0000 O   0  0  0  0  0  0  0  0  0  0  0  0
   43.7900   -4.6838    0.0000 O   0  0  0  0  0  0  0  0  0  0  0  0
   36.5134   -5.6861    0.0000 O   0  0  0  0  0  0  0  0  0  0  0  0
   33.0476   -6.6801    0.0000 O   0  0  0  0  0  0  0  0  0  0  0  0
   35.8707    8.9753    0.0000 N   0  0  0  0  0  0  0  0  0  0  0  0
   34.5929   12.6422    0.0000 N   0  0  0  0  0  0  0  0  0  0  0  0
   35.2859    4.4110    0.0000 N   0  0  0  0  0  0  0  0  0  0  0  0
   21.7753    4.5966    0.0000 N   0  0  0  0  0  0  0  0  0  0  0  0
   25.1352    7.7409    0.0000 N   0  0  0  0  0  0  0  0  0  0  0  0
   27.9653   10.3997    0.0000 N   0  0  0  0  0  0  0  0  0  0  0  0
   31.6286   11.0541    0.0000 N   0  0  0  0  0  0  0  0  0  0  0  0
   17.1905    4.9894    0.0000 N   0  0  0  0  0  0  0  0  0  0  0  0
   39.3709    8.6013    0.0000 N   0  0  0  0  0  0  0  0  0  0  0  0
   37.2129   14.9931    0.0000 N   0  0  0  0  0  0  0  0  0  0  0  0
   24.1263    1.9765    0.0000 N   0  0  0  0  0  0  0  0  0  0  0  0
   35.2798    0.8908    0.0000 N   0  0  0  0  0  0  0  0  0  0  0  0
   21.9219    9.1783    0.0000 N   0  0  0  0  0  0  0  0  0  0  0  0
   39.8867    4.4996    0.0000 N   0  0  0  0  0  0  0  0  0  0  0  0
   16.8164    1.4892    0.0000 N   0  0  0  0  0  0  0  0  0  0  0  0
   30.3084   14.3868    0.0000 N   0  0  0  0  0  0  0  0  0  0  0  0
   26.8833   13.7494    0.0000 N   0  0  0  0  0  0  0  0  0  0  0  0
   14.4145    8.6594    0.0000 N   0  0  0  0  0  0  0  0  0  0  0  0
   43.3869    4.1255    0.0000 N   0  0  0  0  0  0  0  0  0  0  0  0
   12.0662   11.7519    0.0000 N   0  0  0  0  0  0  0  0  0  0  0  0
   11.5631    6.5953    0.0000 N   0  0  0  0  0  0  0  0  0  0  0  0
   13.8315   14.7974    0.0000 N   0  0  0  0  0  0  0  0  0  0  0  0
   39.3019   -0.0648    0.0000 N   0  0  0  0  0  0  0  0  0  0  0  0
   41.3660   -2.9162    0.0000 N   0  0  0  0  0  0  0  0  0  0  0  0
   40.9710    8.4276    0.0000 N   0  0  0  0  0  0  0  0  0  0  0  0
   38.4127   16.0659    0.0000 N   0  0  0  0  0  0  0  0  0  0  0  0
   25.2032    0.7804    0.0000 N   0  0  0  0  0  0  0  0  0  0  0  0
   35.2798   -0.7186    0.0000 N   0  0  0  0  0  0  0  0  0  0  0  0
   20.4538    9.8380    0.0000 N   0  0  0  0  0  0  0  0  0  0  0  0
   16.6482   -0.1114    0.0000 N   0  0  0  0  0  0  0  0  0  0  0  0
   39.3725   10.4241    0.0000 N   0  0  0  0  0  0  0  0  0  0  0  0
   35.8594   16.2139    0.0000 N   0  0  0  0  0  0  0  0  0  0  0  0
   30.6715   16.0804    0.0000 N   0  0  0  0  0  0  0  0  0  0  0  0
   22.6488    0.9090    0.0000 N   0  0  0  0  0  0  0  0  0  0  0  0
   25.3022   14.4567    0.0000 N   0  0  0  0  0  0  0  0  0  0  0  0
   33.4675    1.0861    0.0000 N   0  0  0  0  0  0  0  0  0  0  0  0
   44.7808    4.9303    0.0000 N   0  0  0  0  0  0  0  0  0  0  0  0
   21.3571    7.4452    0.0000 N   0  0  0  0  0  0  0  0  0  0  0  0
   15.0346    1.8728    0.0000 N   0  0  0  0  0  0  0  0  0  0  0  0
    5.9007   11.7115    0.0000 N   0  0  0  0  0  0  0  0  0  0  0  0
   44.1239    2.4585    0.0000 N   0  0  0  0  0  0  0  0  0  0  0  0
   14.6411   16.1885    0.0000 N   0  0  0  0  0  0  0  0  0  0  0  0
    8.7521   13.7757    0.0000 N   0  0  0  0  0  0  0  0  0  0  0  0
   40.9572   11.1231    0.0000 N   0  0  0  0  0  0  0  0  0  0  0  0
   36.4004   17.8593    0.0000 N   0  0  0  0  0  0  0  0  0  0  0  0
   23.0090   -0.7852    0.0000 N   0  0  0  0  0  0  0  0  0  0  0  0
   32.6015   -0.4139    0.0000 N   0  0  0  0  0  0  0  0  0  0  0  0
    9.8695    6.9583    0.0000 N   0  0  0  0  0  0  0  0  0  0  0  0
   12.1670   15.5402    0.0000 N   0  0  0  0  0  0  0  0  0  0  0  0
   19.6340    7.2701    0.0000 N   0  0  0  0  0  0  0  0  0  0  0  0
   42.0678   -4.4998    0.0000 N   0  0  0  0  0  0  0  0  0  0  0  0
   14.0165    0.4716    0.0000 N   0  0  0  0  0  0  0  0  0  0  0  0
   45.8560    2.4585    0.0000 N   0  0  0  0  0  0  0  0  0  0  0  0
   18.6207    8.6749    0.0000 N   0  0  0  0  0  0  0  0  0  0  0  0
   14.7209   -1.1107    0.0000 N   0  0  0  0  0  0  0  0  0  0  0  0
   39.5595   12.1460    0.0000 N   0  0  0  0  0  0  0  0  0  0  0  0
   34.7049   17.5050    0.0000 N   0  0  0  0  0  0  0  0  0  0  0  0
   21.3617   -0.2499    0.0000 N   0  0  0  0  0  0  0  0  0  0  0  0
   31.7355    1.0861    0.0000 N   0  0  0  0  0  0  0  0  0  0  0  0
   46.7220    3.9585    0.0000 N   0  0  0  0  0  0  0  0  0  0  0  0
   12.1730   17.2723    0.0000 N   0  0  0  0  0  0  0  0  0  0  0  0
    4.5986   10.7655    0.0000 N   0  0  0  0  0  0  0  0  0  0  0  0
    8.7083    5.6732    0.0000 N   0  0  0  0  0  0  0  0  0  0  0  0
   13.6760   18.1331    0.0000 N   0  0  0  0  0  0  0  0  0  0  0  0
    4.9934   13.2924    0.0000 N   0  0  0  0  0  0  0  0  0  0  0  0
    3.2709   13.1114    0.0000 N   0  0  0  0  0  0  0  0  0  0  0  0
    2.5664   11.5291    0.0000 N   0  0  0  0  0  0  0  0  0  0  0  0
   34.7796   -6.6831    0.0000 N   0  0  0  0  0  0  0  0  0  0  0  0
   36.7835    8.5670    0.0000 C   0  0  0  0  0  0  0  0  0  0  0  0
   35.5071   13.0473    0.0000 C   0  0  0  0  0  0  0  0  0  0  0  0
   22.6405    4.0951    0.0000 C   0  0  0  0  0  0  0  0  0  0  0  0
   35.5932    3.4594    0.0000 C   0  0  0  0  0  0  0  0  0  0  0  0
   24.3932    8.4114    0.0000 C   0  0  0  0  0  0  0  0  0  0  0  0
   36.9897    7.5885    0.0000 C   0  0  0  0  0  0  0  0  0  0  0  0
   36.3723   12.5458    0.0000 C   0  0  0  0  0  0  0  0  0  0  0  0
   23.5547    4.5003    0.0000 C   0  0  0  0  0  0  0  0  0  0  0  0
   37.6504    9.0655    0.0000 C   0  0  0  0  0  0  0  0  0  0  0  0
   36.5438    3.1487    0.0000 C   0  0  0  0  0  0  0  0  0  0  0  0
   24.4995    9.4057    0.0000 C   0  0  0  0  0  0  0  0  0  0  0  0
   17.3967    4.0109    0.0000 C   0  0  0  0  0  0  0  0  0  0  0  0
   31.4224   12.0326    0.0000 C   0  0  0  0  0  0  0  0  0  0  0  0
   35.7167   14.0251    0.0000 C   0  0  0  0  0  0  0  0  0  0  0  0
   27.9670   11.3997    0.0000 C   0  0  0  0  0  0  0  0  0  0  0  0
   22.7433    3.1004    0.0000 C   0  0  0  0  0  0  0  0  0  0  0  0
   35.0041    2.6514    0.0000 C   0  0  0  0  0  0  0  0  0  0  0  0
   38.3924    8.3951    0.0000 C   0  0  0  0  0  0  0  0  0  0  0  0
   23.4147    8.2051    0.0000 C   0  0  0  0  0  0  0  0  0  0  0  0
   18.3096    3.6025    0.0000 C   0  0  0  0  0  0  0  0  0  0  0  0
   36.7114   14.1279    0.0000 C   0  0  0  0  0  0  0  0  0  0  0  0
   32.0928   12.7746    0.0000 C   0  0  0  0  0  0  0  0  0  0  0  0
   23.7211    2.8908    0.0000 C   0  0  0  0  0  0  0  0  0  0  0  0
   28.7771   11.9861    0.0000 C   0  0  0  0  0  0  0  0  0  0  0  0
   35.5904    1.8414    0.0000 C   0  0  0  0  0  0  0  0  0  0  0  0
   22.9162    9.0720    0.0000 C   0  0  0  0  0  0  0  0  0  0  0  0
   16.7263    3.2689    0.0000 C   0  0  0  0  0  0  0  0  0  0  0  0
   40.7995    4.0912    0.0000 C   0  0  0  0  0  0  0  0  0  0  0  0
   30.5096   12.4409    0.0000 C   0  0  0  0  0  0  0  0  0  0  0  0
   27.1590   11.9889    0.0000 C   0  0  0  0  0  0  0  0  0  0  0  0
   17.2248    2.4021    0.0000 C   0  0  0  0  0  0  0  0  0  0  0  0
   41.0058    3.1127    0.0000 C   0  0  0  0  0  0  0  0  0  0  0  0
   30.6158   13.4353    0.0000 C   0  0  0  0  0  0  0  0  0  0  0  0
   27.4697   12.9394    0.0000 C   0  0  0  0  0  0  0  0  0  0  0  0
   41.6664    4.5897    0.0000 C   0  0  0  0  0  0  0  0  0  0  0  0
   13.8254    7.8514    0.0000 C   0  0  0  0  0  0  0  0  0  0  0  0
   42.4084    3.9193    0.0000 C   0  0  0  0  0  0  0  0  0  0  0  0
   36.3193    6.8465    0.0000 C   0  0  0  0  0  0  0  0  0  0  0  0
   14.1327    6.8999    0.0000 C   0  0  0  0  0  0  0  0  0  0  0  0
   36.4751   11.5511    0.0000 C   0  0  0  0  0  0  0  0  0  0  0  0
   23.7643    5.4781    0.0000 C   0  0  0  0  0  0  0  0  0  0  0  0
   25.3664    9.9042    0.0000 C   0  0  0  0  0  0  0  0  0  0  0  0
   37.3538    3.7351    0.0000 C   0  0  0  0  0  0  0  0  0  0  0  0
   12.8254    7.8532    0.0000 C   0  0  0  0  0  0  0  0  0  0  0  0
   19.1765    4.1010    0.0000 C   0  0  0  0  0  0  0  0  0  0  0  0
   12.8105   12.4198    0.0000 C   0  0  0  0  0  0  0  0  0  0  0  0
   33.0872   12.6683    0.0000 C   0  0  0  0  0  0  0  0  0  0  0  0
   29.7276   11.6754    0.0000 C   0  0  0  0  0  0  0  0  0  0  0  0
   12.5147    6.9027    0.0000 C   0  0  0  0  0  0  0  0  0  0  0  0
   13.7883   12.2102    0.0000 C   0  0  0  0  0  0  0  0  0  0  0  0
   12.7077   13.4145    0.0000 C   0  0  0  0  0  0  0  0  0  0  0  0
   13.6219   13.8196    0.0000 C   0  0  0  0  0  0  0  0  0  0  0  0
   40.3353    2.3708    0.0000 C   0  0  0  0  0  0  0  0  0  0  0  0
   15.0832    6.5892    0.0000 C   0  0  0  0  0  0  0  0  0  0  0  0
   39.6093   -1.0164    0.0000 C   0  0  0  0  0  0  0  0  0  0  0  0
   14.1934   11.2959    0.0000 C   0  0  0  0  0  0  0  0  0  0  0  0
   39.0201   -1.8244    0.0000 C   0  0  0  0  0  0  0  0  0  0  0  0
   40.5598   -1.3271    0.0000 C   0  0  0  0  0  0  0  0  0  0  0  0
   40.5580   -2.3271    0.0000 C   0  0  0  0  0  0  0  0  0  0  0  0
   39.7760    9.5091    0.0000 C   0  0  0  0  0  0  0  0  0  0  0  0
   36.8094   15.9016    0.0000 C   0  0  0  0  0  0  0  0  0  0  0  0
   23.6270    1.1169    0.0000 C   0  0  0  0  0  0  0  0  0  0  0  0
   34.3336    0.5861    0.0000 C   0  0  0  0  0  0  0  0  0  0  0  0
   21.2561    8.4401    0.0000 C   0  0  0  0  0  0  0  0  0  0  0  0
   40.1079    7.9342    0.0000 C   0  0  0  0  0  0  0  0  0  0  0  0
   15.8436    1.2851    0.0000 C   0  0  0  0  0  0  0  0  0  0  0  0
   38.2018   15.0944    0.0000 C   0  0  0  0  0  0  0  0  0  0  0  0
   25.0984    1.7690    0.0000 C   0  0  0  0  0  0  0  0  0  0  0  0
   35.8634    0.0861    0.0000 C   0  0  0  0  0  0  0  0  0  0  0  0
   21.4271   10.0405    0.0000 C   0  0  0  0  0  0  0  0  0  0  0  0
   17.3127    0.6279    0.0000 C   0  0  0  0  0  0  0  0  0  0  0  0
   44.1239    3.4585    0.0000 C   0  0  0  0  0  0  0  0  0  0  0  0
   29.3306   14.5964    0.0000 C   0  0  0  0  0  0  0  0  0  0  0  0
   27.2916   14.6623    0.0000 C   0  0  0  0  0  0  0  0  0  0  0  0
   30.9788   15.1288    0.0000 C   0  0  0  0  0  0  0  0  0  0  0  0
   38.0201   -1.8227    0.0000 C   0  0  0  0  0  0  0  0  0  0  0  0
   25.8886   13.6466    0.0000 C   0  0  0  0  0  0  0  0  0  0  0  0
   40.7702    9.4011    0.0000 C   0  0  0  0  0  0  0  0  0  0  0  0
   37.5549   16.5681    0.0000 C   0  0  0  0  0  0  0  0  0  0  0  0
    8.4703   12.0161    0.0000 C   0  0  0  0  0  0  0  0  0  0  0  0
   24.2961    0.3738    0.0000 C   0  0  0  0  0  0  0  0  0  0  0  0
   43.7920    5.0333    0.0000 C   0  0  0  0  0  0  0  0  0  0  0  0
   34.3336   -0.4139    0.0000 C   0  0  0  0  0  0  0  0  0  0  0  0
    8.1629   12.9677    0.0000 C   0  0  0  0  0  0  0  0  0  0  0  0
   20.3439    8.8500    0.0000 C   0  0  0  0  0  0  0  0  0  0  0  0
   15.7390    0.2905    0.0000 C   0  0  0  0  0  0  0  0  0  0  0  0
    7.1629   12.9694    0.0000 C   0  0  0  0  0  0  0  0  0  0  0  0
    6.8523   12.0189    0.0000 C   0  0  0  0  0  0  0  0  0  0  0  0
   13.1670   15.5368    0.0000 C   0  0  0  0  0  0  0  0  0  0  0  0
    9.4208   11.7054    0.0000 C   0  0  0  0  0  0  0  0  0  0  0  0
   44.9900    3.9585    0.0000 C   0  0  0  0  0  0  0  0  0  0  0  0
   11.3535    5.6175    0.0000 C   0  0  0  0  0  0  0  0  0  0  0  0
   29.0233   15.5480    0.0000 C   0  0  0  0  0  0  0  0  0  0  0  0
   10.8211    7.2657    0.0000 C   0  0  0  0  0  0  0  0  0  0  0  0
   26.7052   15.4723    0.0000 C   0  0  0  0  0  0  0  0  0  0  0  0
   14.7407   15.1994    0.0000 C   0  0  0  0  0  0  0  0  0  0  0  0
   41.3608   10.2081    0.0000 C   0  0  0  0  0  0  0  0  0  0  0  0
   13.6700   16.4010    0.0000 C   0  0  0  0  0  0  0  0  0  0  0  0
   37.3503   17.5470    0.0000 C   0  0  0  0  0  0  0  0  0  0  0  0
   23.9871   -0.5773    0.0000 C   0  0  0  0  0  0  0  0  0  0  0  0
   29.6937   16.2900    0.0000 C   0  0  0  0  0  0  0  0  0  0  0  0
   33.4675   -0.9139    0.0000 C   0  0  0  0  0  0  0  0  0  0  0  0
   25.7105   15.3695    0.0000 C   0  0  0  0  0  0  0  0  0  0  0  0
   19.5329    8.2650    0.0000 C   0  0  0  0  0  0  0  0  0  0  0  0
   42.2803   -2.5111    0.0000 C   0  0  0  0  0  0  0  0  0  0  0  0
   14.8255   -0.1162    0.0000 C   0  0  0  0  0  0  0  0  0  0  0  0
   41.2598   -3.9106    0.0000 C   0  0  0  0  0  0  0  0  0  0  0  0
   39.9630   11.2310    0.0000 C   0  0  0  0  0  0  0  0  0  0  0  0
   35.6549   17.1927    0.0000 C   0  0  0  0  0  0  0  0  0  0  0  0
   22.3398   -0.0420    0.0000 C   0  0  0  0  0  0  0  0  0  0  0  0
   10.4019    5.3101    0.0000 C   0  0  0  0  0  0  0  0  0  0  0  0
   32.6015    0.5861    0.0000 C   0  0  0  0  0  0  0  0  0  0  0  0
   45.8560    3.4585    0.0000 C   0  0  0  0  0  0  0  0  0  0  0  0
   28.0455   15.7576    0.0000 C   0  0  0  0  0  0  0  0  0  0  0  0
   27.1135   16.3851    0.0000 C   0  0  0  0  0  0  0  0  0  0  0  0
   20.5461    6.8602    0.0000 C   0  0  0  0  0  0  0  0  0  0  0  0
    9.6599    5.9806    0.0000 C   0  0  0  0  0  0  0  0  0  0  0  0
   43.0883   -3.1003    0.0000 C   0  0  0  0  0  0  0  0  0  0  0  0
   14.1210    1.4660    0.0000 C   0  0  0  0  0  0  0  0  0  0  0  0
   13.1730   17.2688    0.0000 C   0  0  0  0  0  0  0  0  0  0  0  0
    5.0980   12.2979    0.0000 C   0  0  0  0  0  0  0  0  0  0  0  0
   44.9900    1.9585    0.0000 C   0  0  0  0  0  0  0  0  0  0  0  0
    5.5927   10.7664    0.0000 C   0  0  0  0  0  0  0  0  0  0  0  0
   42.9820   -4.0946    0.0000 C   0  0  0  0  0  0  0  0  0  0  0  0
   11.6700   16.4080    0.0000 C   0  0  0  0  0  0  0  0  0  0  0  0
    4.2890   11.7101    0.0000 C   0  0  0  0  0  0  0  0  0  0  0  0
   44.0025   -2.6951    0.0000 C   0  0  0  0  0  0  0  0  0  0  0  0
    3.3754   12.1169    0.0000 C   0  0  0  0  0  0  0  0  0  0  0  0
   35.6500   -4.1846    0.0000 C   0  0  0  0  0  0  0  0  0  0  0  0
    4.0799   13.6992    0.0000 C   0  0  0  0  0  0  0  0  0  0  0  0
   35.6482   -5.1846    0.0000 C   0  0  0  0  0  0  0  0  0  0  0  0
   34.7813   -5.6831    0.0000 C   0  0  0  0  0  0  0  0  0  0  0  0
   33.9127   -7.1816    0.0000 C   0  0  0  0  0  0  0  0  0  0  0  0
   33.9110   -8.1816    0.0000 C   0  0  0  0  0  0  0  0  0  0  0  0
   33.0441   -8.6801    0.0000 C   0  0  0  0  0  0  0  0  0  0  0  0
   33.0424   -9.6801    0.0000 C   0  0  0  0  0  0  0  0  0  0  0  0
   32.1755  -10.1786    0.0000 C   0  0  0  0  0  0  0  0  0  0  0  0
   32.1737  -11.1786    0.0000 C   0  0  0  0  0  0  0  0  0  0  0  0
   31.3069  -11.6771    0.0000 C   0  0  0  0  0  0  0  0  0  0  0  0
   31.3051  -12.6771    0.0000 C   0  0  0  0  0  0  0  0  0  0  0  0
   30.4382  -13.1756    0.0000 C   0  0  0  0  0  0  0  0  0  0  0  0
   30.4365  -14.1756    0.0000 C   0  0  0  0  0  0  0  0  0  0  0  0
   29.5696  -14.6741    0.0000 C   0  0  0  0  0  0  0  0  0  0  0  0
   29.5679  -15.6741    0.0000 C   0  0  0  0  0  0  0  0  0  0  0  0
   28.7010  -16.1726    0.0000 C   0  0  0  0  0  0  0  0  0  0  0  0
   28.6993  -17.1726    0.0000 C   0  0  0  0  0  0  0  0  0  0  0  0
   27.8324  -17.6711    0.0000 C   0  0  0  0  0  0  0  0  0  0  0  0
   27.8306  -18.6711    0.0000 C   0  0  0  0  0  0  0  0  0  0  0  0
  1 14  2  0
  2 15  2  0
  3 16  2  0
  4 17  2  0
  5 18  2  0
  6 19  2  0
  7 20  2  0
  8 21  2  0
  9 22  2  0
 10 23  2  0
 11 24  2  0
 12 25  2  0
 13 26  2  0
 14 51  1  0
 14 63  1  0
 14 93  1  0
 15 50  1  0
 15 64  1  0
 15 95  1  0
 16 52  1  0
 16 65  1  0
 16 97  1  0
 17 53  1  0
 17 66  1  0
 17 96  1  0
 18 56  1  0
 18 67  1  0
 18 94  1  0
 19 54  1  0
 19 68  1  0
 19 98  1  0
 20 58  1  0
 20 70  1  0
 20 99  1  0
 21 57  1  0
 21 72  1  0
 21106  1  0
 22 59  1  0
 22 73  1  0
 22100  1  0
 23 62  1  0
 23 74  1  0
 23110  1  0
 24 60  1  0
 24 76  1  0
 24115  1  0
 25 71  1  0
 25 79  1  0
 25112  1  0
 26 75  1  0
 26 88  1  0
 26 89  1  0
 40166  1  0
 40178  1  0
 41167  1  0
 41181  1  0
 42168  1  0
 42183  1  0
 43170  1  0
 43185  1  0
 44171  1  0
 44186  1  0
 45180  1  0
 45191  1  0
 46182  1  0
 46193  1  0
 47184  1  0
 47194  1  0
 48192  1  0
 48197  1  0
 49199  1  0
 49209  1  0
 50198  1  0
 51200  1  0
 52201  1  0
 53205  1  0
 54202  1  0
 55210  1  0
 55212  1  0
 56207  1  0
 57203  1  0
 58208  1  0
 59214  1  0
 60213  1  0
 61217  1  0
 61219  1  0
 62216  1  0
 69240  1  0
 69248  1  0
 71250  1  0
 75236  1  0
 77235  2  0
 78237  2  0
 80254  2  0
 81257  2  0
 82259  2  0
 83260  2  0
 84261  2  0
 85262  2  0
 86263  2  0
 87267  2  0
 88289  1  0
 90284  2  0
 91291  1  0
 92293  2  0
161 93  1  1
162 94  1  1
164 95  1  6
163 96  1  6
165 97  1  1
175 98  1  1
173 99  1  1
172100  1  6
178101  1  6
101220  1  0
101225  1  0
181102  1  6
102221  1  0
102227  1  0
183103  1  1
103222  1  0
103228  1  0
185104  1  1
104223  1  0
104229  1  0
186105  1  6
105224  1  0
105230  1  0
188106  1  1
191107  1  1
107226  1  0
107231  1  0
193108  1  6
108233  1  0
108235  1  0
194109  1  6
109234  1  0
109237  1  0
196110  1  6
197111  1  6
111232  1  0
111242  1  0
206112  1  1
209113  1  1
113252  1  0
113254  1  0
212114  1  6
114249  1  0
114256  1  0
215115  1  1
219116  1  6
116265  1  0
116267  1  0
117225  2  0
117238  1  0
118227  2  0
118239  1  0
119228  2  0
119241  1  0
120229  2  0
120243  1  0
121230  2  0
121245  1  0
122231  2  0
122246  1  0
123220  1  0
123268  2  0
124221  1  0
124269  2  0
125235  1  0
125261  1  0
126222  1  0
126270  2  0
127237  1  0
127263  1  0
128223  1  0
128272  2  0
129242  2  0
129251  1  0
130224  1  0
130276  2  0
131226  1  0
131279  2  0
248132  1  1
132281  1  0
132283  1  0
133232  1  0
133282  2  0
134256  2  0
134258  1  0
244135  1  6
136257  1  0
136268  1  0
137259  1  0
137269  1  0
138260  1  0
138270  1  0
139262  1  0
139272  1  0
140254  1  0
140277  2  0
141249  1  0
141285  2  0
142264  2  0
142276  1  0
143267  1  0
143284  1  0
144266  2  0
144279  1  0
145273  2  0
145282  1  0
146264  1  0
147266  1  0
148268  1  0
149269  1  0
150270  1  0
151272  1  0
152273  1  0
153280  2  0
153285  1  0
154283  2  0
154286  1  0
155277  1  0
156280  1  0
157281  1  0
157290  2  0
158288  2  0
158290  1  0
159288  1  0
160292  1  0
160293  1  0
161166  1  0
161169  1  0
162167  1  0
162174  1  0
163168  1  0
163176  1  0
164170  1  0
164177  1  0
165171  1  0
165179  1  0
166198  1  6
167200  1  6
168201  1  1
169178  1  0
170203  1  1
171202  1  6
172180  1  0
172187  1  0
173182  1  0
173189  1  0
174181  1  0
175184  1  0
175190  1  0
176183  1  0
177185  1  0
179186  1  0
180205  1  1
182207  1  6
184208  1  6
187191  1  0
188192  1  0
188195  1  0
189193  1  0
190194  1  0
192213  1  6
195197  1  0
196199  1  0
196204  1  0
199214  1  1
204209  1  0
206210  1  0
206211  1  0
210216  1  6
211212  1  0
215217  1  0
215218  1  0
217236  1  6
218219  1  0
220238  2  0
221239  2  0
222241  2  0
223243  2  0
224245  2  0
226246  2  0
232251  2  0
233253  2  0
234255  2  0
238257  1  0
239259  1  0
240244  1  0
240250  1  1
241260  1  0
243262  1  0
244247  1  0
245264  1  0
246266  1  0
247248  1  0
249258  2  0
251273  1  0
252271  2  0
253261  1  0
253274  1  0
255263  1  0
255275  1  0
258280  1  0
265278  2  0
271277  1  0
278284  1  0
278287  1  0
281286  2  0
286288  1  0
289291  1  0
291292  1  0
293294  1  0
294295  1  0
295296  1  0
296297  1  0
297298  1  0
298299  1  0
299300  1  0
300301  1  0
301302  1  0
302303  1  0
303304  1  0
304305  1  0
305306  1  0
306307  1  0
307308  1  0
M  CHG  8  27   1  28   1  29   1  30   1  31   1  32   1  33   1  34   1
M  CHG  8  35   1  36   1  37   1  38   1  39   1  63  -1  64  -1  65  -1
M  CHG  8  66  -1  67  -1  68  -1  70  -1  72  -1  73  -1  74  -1  76  -1
M  CHG  2  79  -1  89  -1
M  END
