72941969
     RDKit          2D

295329  0  0  1  0  0  0  0  0999 V2000
   35.8148    7.5770    0.0000 S   0  0  0  0  0  0  0  0  0  0  0  0
   38.7333    8.2874    0.0000 S   0  0  0  0  0  0  0  0  0  0  0  0
   24.0340   -5.1376    0.0000 S   0  0  0  0  0  0  0  0  0  0  0  0
   22.7623   -9.1312    0.0000 S   0  0  0  0  0  0  0  0  0  0  0  0
   34.3899    4.9328    0.0000 S   0  0  0  0  0  0  0  0  0  0  0  0
   26.3665   -0.0567    0.0000 S   0  0  0  0  0  0  0  0  0  0  0  0
   31.9959    0.9489    0.0000 S   0  0  0  0  0  0  0  0  0  0  0  0
   43.1251    9.3678    0.0000 S   0  0  0  0  0  0  0  0  0  0  0  0
   17.4316   -7.4464    0.0000 S   0  0  0  0  0  0  0  0  0  0  0  0
   16.3126   -3.3239    0.0000 S   0  0  0  0  0  0  0  0  0  0  0  0
   43.8652    5.9922    0.0000 S   0  0  0  0  0  0  0  0  0  0  0  0
   11.5034   -0.4731    0.0000 S   0  0  0  0  0  0  0  0  0  0  0  0
   41.1552    2.9585    0.0000 S   0  0  0  0  0  0  0  0  0  0  0  0
   35.2285    8.3870    0.0000 P   0  0  0  0  0  0  0  0  0  0  0  0
   38.9429    9.2652    0.0000 P   0  0  0  0  0  0  0  0  0  0  0  0
   24.9845   -5.4483    0.0000 P   0  0  0  0  0  0  0  0  0  0  0  0
   22.3572   -8.2170    0.0000 P   0  0  0  0  0  0  0  0  0  0  0  0
   33.3956    5.0390    0.0000 P   0  0  0  0  0  0  0  0  0  0  0  0
   26.7717   -0.9710    0.0000 P   0  0  0  0  0  0  0  0  0  0  0  0
   31.0454    1.2595    0.0000 P   0  0  0  0  0  0  0  0  0  0  0  0
   43.7115    8.5578    0.0000 P   0  0  0  0  0  0  0  0  0  0  0  0
   17.8399   -6.5336    0.0000 P   0  0  0  0  0  0  0  0  0  0  0  0
   15.3610   -3.6313    0.0000 P   0  0  0  0  0  0  0  0  0  0  0  0
   44.6072    5.3218    0.0000 P   0  0  0  0  0  0  0  0  0  0  0  0
   11.0951   -1.3859    0.0000 P   0  0  0  0  0  0  0  0  0  0  0  0
   41.1534    1.9585    0.0000 P   0  0  0  0  0  0  0  0  0  0  0  0
   36.2748   11.5502    0.0000 O   0  0  0  0  0  0  0  0  0  0  0  0
   31.7450    7.9332    0.0000 O   0  0  0  0  0  0  0  0  0  0  0  0
   25.6174   -8.9037    0.0000 O   0  0  0  0  0  0  0  0  0  0  0  0
   41.1769    6.7933    0.0000 O   0  0  0  0  0  0  0  0  0  0  0  0
   23.9718   -2.2742    0.0000 O   0  0  0  0  0  0  0  0  0  0  0  0
   19.5111   -9.4159    0.0000 O   0  0  0  0  0  0  0  0  0  0  0  0
   30.0326    4.4336    0.0000 O   0  0  0  0  0  0  0  0  0  0  0  0
   30.0319   -1.6578    0.0000 O   0  0  0  0  0  0  0  0  0  0  0  0
   46.6350    7.6511    0.0000 O   0  0  0  0  0  0  0  0  0  0  0  0
   14.3373   -6.8018    0.0000 O   0  0  0  0  0  0  0  0  0  0  0  0
   34.4184    7.8006    0.0000 O   0  0  0  0  0  0  0  0  0  0  0  0
   37.9651    9.4748    0.0000 O   0  0  0  0  0  0  0  0  0  0  0  0
   24.6738   -6.3988    0.0000 O   0  0  0  0  0  0  0  0  0  0  0  0
   21.4429   -8.6221    0.0000 O   0  0  0  0  0  0  0  0  0  0  0  0
   25.8574   -1.3762    0.0000 O   0  0  0  0  0  0  0  0  0  0  0  0
   32.4012    5.1453    0.0000 O   0  0  0  0  0  0  0  0  0  0  0  0
   42.9015    7.9714    0.0000 O   0  0  0  0  0  0  0  0  0  0  0  0
   14.3577   -0.7105    0.0000 O   0  0  0  0  0  0  0  0  0  0  0  0
   30.7347    0.3090    0.0000 O   0  0  0  0  0  0  0  0  0  0  0  0
   16.9270   -6.1252    0.0000 O   0  0  0  0  0  0  0  0  0  0  0  0
   45.2776    6.0637    0.0000 O   0  0  0  0  0  0  0  0  0  0  0  0
   44.2413    2.0102    0.0000 O   0  0  0  0  0  0  0  0  0  0  0  0
   15.0537   -2.6797    0.0000 O   0  0  0  0  0  0  0  0  0  0  0  0
   34.6421    9.1971    0.0000 O   0  0  0  0  0  0  0  0  0  0  0  0
   39.1525   10.2429    0.0000 O   0  0  0  0  0  0  0  0  0  0  0  0
   25.9350   -5.7590    0.0000 O   0  0  0  0  0  0  0  0  0  0  0  0
   21.9520   -7.3027    0.0000 O   0  0  0  0  0  0  0  0  0  0  0  0
   33.2893    4.0447    0.0000 O   0  0  0  0  0  0  0  0  0  0  0  0
   27.1768   -1.8853    0.0000 O   0  0  0  0  0  0  0  0  0  0  0  0
   30.0948    1.5702    0.0000 O   0  0  0  0  0  0  0  0  0  0  0  0
   44.2979    7.7477    0.0000 O   0  0  0  0  0  0  0  0  0  0  0  0
   18.2482   -5.6207    0.0000 O   0  0  0  0  0  0  0  0  0  0  0  0
   10.1823   -0.9776    0.0000 O   0  0  0  0  0  0  0  0  0  0  0  0
    7.5925   -1.6542    0.0000 O   0  0  0  0  0  0  0  0  0  0  0  0
   14.4095   -3.9386    0.0000 O   0  0  0  0  0  0  0  0  0  0  0  0
   45.3491    4.6513    0.0000 O   0  0  0  0  0  0  0  0  0  0  0  0
   42.1534    1.9568    0.0000 O   0  0  0  0  0  0  0  0  0  0  0  0
   10.6868   -2.2987    0.0000 O   0  0  0  0  0  0  0  0  0  0  0  0
   27.9475    2.2818    0.0000 O   0  0  0  0  0  0  0  0  0  0  0  0
   31.3984   -2.8850    0.0000 O   0  0  0  0  0  0  0  0  0  0  0  0
   12.9740   -8.0324    0.0000 O   0  0  0  0  0  0  0  0  0  0  0  0
   31.8223   14.0265    0.0000 O   0  0  0  0  0  0  0  0  0  0  0  0
   26.9284    7.9838    0.0000 O   0  0  0  0  0  0  0  0  0  0  0  0
   25.3772    4.6042    0.0000 O   0  0  0  0  0  0  0  0  0  0  0  0
   25.5181  -13.9976    0.0000 O   0  0  0  0  0  0  0  0  0  0  0  0
   30.6723   -6.2721    0.0000 O   0  0  0  0  0  0  0  0  0  0  0  0
   38.1024    2.7307    0.0000 O   0  0  0  0  0  0  0  0  0  0  0  0
   44.9804    0.3288    0.0000 O   0  0  0  0  0  0  0  0  0  0  0  0
   41.1517    0.9585    0.0000 O   0  0  0  0  0  0  0  0  0  0  0  0
   40.1534    1.9602    0.0000 O   0  0  0  0  0  0  0  0  0  0  0  0
   48.4249   -0.0392    0.0000 O   0  0  0  0  0  0  0  0  0  0  0  0
   41.1482   -1.0415    0.0000 O   0  0  0  0  0  0  0  0  0  0  0  0
   37.6824   -2.0355    0.0000 O   0  0  0  0  0  0  0  0  0  0  0  0
   36.0385    8.9734    0.0000 N   0  0  0  0  0  0  0  0  0  0  0  0
   33.5018    6.0334    0.0000 N   0  0  0  0  0  0  0  0  0  0  0  0
   23.2714   -7.8118    0.0000 N   0  0  0  0  0  0  0  0  0  0  0  0
   39.9207    9.0556    0.0000 N   0  0  0  0  0  0  0  0  0  0  0  0
   25.2952   -4.4978    0.0000 N   0  0  0  0  0  0  0  0  0  0  0  0
   27.6859   -0.5659    0.0000 N   0  0  0  0  0  0  0  0  0  0  0  0
   31.3561    2.2101    0.0000 N   0  0  0  0  0  0  0  0  0  0  0  0
   18.7527   -6.9419    0.0000 N   0  0  0  0  0  0  0  0  0  0  0  0
   34.6123   12.1917    0.0000 N   0  0  0  0  0  0  0  0  0  0  0  0
   30.1559    7.1270    0.0000 N   0  0  0  0  0  0  0  0  0  0  0  0
   25.3356  -10.6633    0.0000 N   0  0  0  0  0  0  0  0  0  0  0  0
   39.9146    5.5354    0.0000 N   0  0  0  0  0  0  0  0  0  0  0  0
   44.5216    9.1441    0.0000 N   0  0  0  0  0  0  0  0  0  0  0  0
   22.2497   -2.7324    0.0000 N   0  0  0  0  0  0  0  0  0  0  0  0
   18.0149  -10.3838    0.0000 N   0  0  0  0  0  0  0  0  0  0  0  0
   28.3106    3.9754    0.0000 N   0  0  0  0  0  0  0  0  0  0  0  0
   29.7501   -3.4173    0.0000 N   0  0  0  0  0  0  0  0  0  0  0  0
   15.6684   -4.5829    0.0000 N   0  0  0  0  0  0  0  0  0  0  0  0
   48.0218    8.7701    0.0000 N   0  0  0  0  0  0  0  0  0  0  0  0
   12.0080   -1.7942    0.0000 N   0  0  0  0  0  0  0  0  0  0  0  0
   12.6168   -6.3377    0.0000 N   0  0  0  0  0  0  0  0  0  0  0  0
   14.0820    1.0500    0.0000 N   0  0  0  0  0  0  0  0  0  0  0  0
   43.9367    4.5798    0.0000 N   0  0  0  0  0  0  0  0  0  0  0  0
   46.0009    1.7283    0.0000 N   0  0  0  0  0  0  0  0  0  0  0  0
   33.9628   13.6643    0.0000 N   0  0  0  0  0  0  0  0  0  0  0  0
   28.6252    6.6296    0.0000 N   0  0  0  0  0  0  0  0  0  0  0  0
   26.2817  -11.9654    0.0000 N   0  0  0  0  0  0  0  0  0  0  0  0
   39.9146    3.9260    0.0000 N   0  0  0  0  0  0  0  0  0  0  0  0
   20.8587   -1.9229    0.0000 N   0  0  0  0  0  0  0  0  0  0  0  0
   17.6803  -11.9581    0.0000 N   0  0  0  0  0  0  0  0  0  0  0  0
   33.0330   11.2817    0.0000 N   0  0  0  0  0  0  0  0  0  0  0  0
   26.6624    3.4430    0.0000 N   0  0  0  0  0  0  0  0  0  0  0  0
   29.7816    8.9109    0.0000 N   0  0  0  0  0  0  0  0  0  0  0  0
   31.0353   -4.5785    0.0000 N   0  0  0  0  0  0  0  0  0  0  0  0
   23.7547  -11.5705    0.0000 N   0  0  0  0  0  0  0  0  0  0  0  0
   38.1024    5.7307    0.0000 N   0  0  0  0  0  0  0  0  0  0  0  0
   49.4156    9.5749    0.0000 N   0  0  0  0  0  0  0  0  0  0  0  0
   21.5069   -4.3969    0.0000 N   0  0  0  0  0  0  0  0  0  0  0  0
   16.2828   -9.8160    0.0000 N   0  0  0  0  0  0  0  0  0  0  0  0
    5.8720   -1.1900    0.0000 N   0  0  0  0  0  0  0  0  0  0  0  0
   48.7588    7.1030    0.0000 N   0  0  0  0  0  0  0  0  0  0  0  0
   15.0325    2.3489    0.0000 N   0  0  0  0  0  0  0  0  0  0  0  0
   31.6353   12.3046    0.0000 N   0  0  0  0  0  0  0  0  0  0  0  0
    8.9236    0.5648    0.0000 N   0  0  0  0  0  0  0  0  0  0  0  0
   28.0874    9.2710    0.0000 N   0  0  0  0  0  0  0  0  0  0  0  0
   23.9358  -13.2931    0.0000 N   0  0  0  0  0  0  0  0  0  0  0  0
   37.2364    4.2307    0.0000 N   0  0  0  0  0  0  0  0  0  0  0  0
   11.3276   -7.4943    0.0000 N   0  0  0  0  0  0  0  0  0  0  0  0
   12.5042    1.9628    0.0000 N   0  0  0  0  0  0  0  0  0  0  0  0
   19.7749   -4.3909    0.0000 N   0  0  0  0  0  0  0  0  0  0  0  0
   46.7026    0.1448    0.0000 N   0  0  0  0  0  0  0  0  0  0  0  0
   15.1239  -11.1032    0.0000 N   0  0  0  0  0  0  0  0  0  0  0  0
   50.4908    7.1030    0.0000 N   0  0  0  0  0  0  0  0  0  0  0  0
   18.9141   -2.8880    0.0000 N   0  0  0  0  0  0  0  0  0  0  0  0
   15.6591  -12.7505    0.0000 N   0  0  0  0  0  0  0  0  0  0  0  0
   31.4483   10.5827    0.0000 N   0  0  0  0  0  0  0  0  0  0  0  0
   29.2463   10.5581    0.0000 N   0  0  0  0  0  0  0  0  0  0  0  0
   22.3534  -12.5886    0.0000 N   0  0  0  0  0  0  0  0  0  0  0  0
   36.3703    5.7307    0.0000 N   0  0  0  0  0  0  0  0  0  0  0  0
   51.3569    8.6030    0.0000 N   0  0  0  0  0  0  0  0  0  0  0  0
   12.6912    3.6847    0.0000 N   0  0  0  0  0  0  0  0  0  0  0  0
    4.4782   -1.9947    0.0000 N   0  0  0  0  0  0  0  0  0  0  0  0
    9.6813   -6.9563    0.0000 N   0  0  0  0  0  0  0  0  0  0  0  0
   14.2760    4.3837    0.0000 N   0  0  0  0  0  0  0  0  0  0  0  0
    5.1350    0.4771    0.0000 N   0  0  0  0  0  0  0  0  0  0  0  0
    3.4030    0.4771    0.0000 N   0  0  0  0  0  0  0  0  0  0  0  0
    2.5369   -1.0229    0.0000 N   0  0  0  0  0  0  0  0  0  0  0  0
   39.4145   -2.0385    0.0000 N   0  0  0  0  0  0  0  0  0  0  0  0
   35.9357    9.9681    0.0000 C   0  0  0  0  0  0  0  0  0  0  0  0
   32.6938    6.6226    0.0000 C   0  0  0  0  0  0  0  0  0  0  0  0
   24.0794   -8.4010    0.0000 C   0  0  0  0  0  0  0  0  0  0  0  0
   40.2281    8.1040    0.0000 C   0  0  0  0  0  0  0  0  0  0  0  0
   24.6273   -3.7535    0.0000 C   0  0  0  0  0  0  0  0  0  0  0  0
   36.6800   10.6360    0.0000 C   0  0  0  0  0  0  0  0  0  0  0  0
   32.6956    7.6226    0.0000 C   0  0  0  0  0  0  0  0  0  0  0  0
   25.0310   -8.0936    0.0000 C   0  0  0  0  0  0  0  0  0  0  0  0
   35.0705   10.4696    0.0000 C   0  0  0  0  0  0  0  0  0  0  0  0
   41.1786    7.7933    0.0000 C   0  0  0  0  0  0  0  0  0  0  0  0
   24.8369   -2.7757    0.0000 C   0  0  0  0  0  0  0  0  0  0  0  0
   18.8555   -7.9366    0.0000 C   0  0  0  0  0  0  0  0  0  0  0  0
   30.6882    2.9544    0.0000 C   0  0  0  0  0  0  0  0  0  0  0  0
   28.4939   -1.1551    0.0000 C   0  0  0  0  0  0  0  0  0  0  0  0
   31.7422    6.3152    0.0000 C   0  0  0  0  0  0  0  0  0  0  0  0
   24.0777   -9.4010    0.0000 C   0  0  0  0  0  0  0  0  0  0  0  0
   39.6389    7.2960    0.0000 C   0  0  0  0  0  0  0  0  0  0  0  0
   35.2801   11.4474    0.0000 C   0  0  0  0  0  0  0  0  0  0  0  0
   23.6326   -3.8563    0.0000 C   0  0  0  0  0  0  0  0  0  0  0  0
   19.7207   -8.4381    0.0000 C   0  0  0  0  0  0  0  0  0  0  0  0
   30.8978    3.9322    0.0000 C   0  0  0  0  0  0  0  0  0  0  0  0
   31.1559    7.1252    0.0000 C   0  0  0  0  0  0  0  0  0  0  0  0
   25.0282   -9.7117    0.0000 C   0  0  0  0  0  0  0  0  0  0  0  0
   29.4455   -0.8477    0.0000 C   0  0  0  0  0  0  0  0  0  0  0  0
   40.2253    6.4859    0.0000 C   0  0  0  0  0  0  0  0  0  0  0  0
   23.2275   -2.9420    0.0000 C   0  0  0  0  0  0  0  0  0  0  0  0
   18.1112   -8.6044    0.0000 C   0  0  0  0  0  0  0  0  0  0  0  0
   45.4344    8.7358    0.0000 C   0  0  0  0  0  0  0  0  0  0  0  0
   29.6934    2.8516    0.0000 C   0  0  0  0  0  0  0  0  0  0  0  0
   28.4922   -2.1551    0.0000 C   0  0  0  0  0  0  0  0  0  0  0  0
   18.5164   -9.5187    0.0000 C   0  0  0  0  0  0  0  0  0  0  0  0
   29.2883    3.7658    0.0000 C   0  0  0  0  0  0  0  0  0  0  0  0
   45.6406    7.7573    0.0000 C   0  0  0  0  0  0  0  0  0  0  0  0
   29.4427   -2.4658    0.0000 C   0  0  0  0  0  0  0  0  0  0  0  0
   14.9980   -5.3249    0.0000 C   0  0  0  0  0  0  0  0  0  0  0  0
   46.3013    9.2343    0.0000 C   0  0  0  0  0  0  0  0  0  0  0  0
   37.6578   10.4264    0.0000 C   0  0  0  0  0  0  0  0  0  0  0  0
   15.2042   -6.3033    0.0000 C   0  0  0  0  0  0  0  0  0  0  0  0
   47.0433    8.5639    0.0000 C   0  0  0  0  0  0  0  0  0  0  0  0
   33.5056    8.2090    0.0000 C   0  0  0  0  0  0  0  0  0  0  0  0
   25.3417   -7.1431    0.0000 C   0  0  0  0  0  0  0  0  0  0  0  0
   25.7512   -2.3705    0.0000 C   0  0  0  0  0  0  0  0  0  0  0  0
   41.9886    8.3797    0.0000 C   0  0  0  0  0  0  0  0  0  0  0  0
   14.0037   -5.2186    0.0000 C   0  0  0  0  0  0  0  0  0  0  0  0
   20.6349   -8.0329    0.0000 C   0  0  0  0  0  0  0  0  0  0  0  0
   31.8121    4.3373    0.0000 C   0  0  0  0  0  0  0  0  0  0  0  0
   29.7562    0.1028    0.0000 C   0  0  0  0  0  0  0  0  0  0  0  0
   12.8180   -1.2078    0.0000 C   0  0  0  0  0  0  0  0  0  0  0  0
   13.5953   -6.1314    0.0000 C   0  0  0  0  0  0  0  0  0  0  0  0
   13.7685   -1.5185    0.0000 C   0  0  0  0  0  0  0  0  0  0  0  0
   12.8197   -0.2078    0.0000 C   0  0  0  0  0  0  0  0  0  0  0  0
   13.7713    0.0995    0.0000 C   0  0  0  0  0  0  0  0  0  0  0  0
   44.9702    7.0153    0.0000 C   0  0  0  0  0  0  0  0  0  0  0  0
   16.1170   -6.7116    0.0000 C   0  0  0  0  0  0  0  0  0  0  0  0
   44.2441    3.6282    0.0000 C   0  0  0  0  0  0  0  0  0  0  0  0
   14.0759   -2.4701    0.0000 C   0  0  0  0  0  0  0  0  0  0  0  0
   43.6549    2.8202    0.0000 C   0  0  0  0  0  0  0  0  0  0  0  0
   45.1946    3.3175    0.0000 C   0  0  0  0  0  0  0  0  0  0  0  0
   45.1929    2.3175    0.0000 C   0  0  0  0  0  0  0  0  0  0  0  0
   33.6236   12.0886    0.0000 C   0  0  0  0  0  0  0  0  0  0  0  0
   29.5736    7.9327    0.0000 C   0  0  0  0  0  0  0  0  0  0  0  0
   24.7492  -11.4660    0.0000 C   0  0  0  0  0  0  0  0  0  0  0  0
   38.9684    5.2307    0.0000 C   0  0  0  0  0  0  0  0  0  0  0  0
   21.5104   -3.3969    0.0000 C   0  0  0  0  0  0  0  0  0  0  0  0
   34.8215   13.1635    0.0000 C   0  0  0  0  0  0  0  0  0  0  0  0
   17.0260  -10.4852    0.0000 C   0  0  0  0  0  0  0  0  0  0  0  0
   29.5709    6.3232    0.0000 C   0  0  0  0  0  0  0  0  0  0  0  0
   26.2808  -10.9713    0.0000 C   0  0  0  0  0  0  0  0  0  0  0  0
   40.4982    4.7307    0.0000 C   0  0  0  0  0  0  0  0  0  0  0  0
   21.8477   -1.8232    0.0000 C   0  0  0  0  0  0  0  0  0  0  0  0
   18.4184  -11.2923    0.0000 C   0  0  0  0  0  0  0  0  0  0  0  0
   28.0032    4.9270    0.0000 C   0  0  0  0  0  0  0  0  0  0  0  0
   48.7588    8.1030    0.0000 C   0  0  0  0  0  0  0  0  0  0  0  0
   29.0797   -4.1593    0.0000 C   0  0  0  0  0  0  0  0  0  0  0  0
   27.6401    3.2334    0.0000 C   0  0  0  0  0  0  0  0  0  0  0  0
   30.7279   -3.6270    0.0000 C   0  0  0  0  0  0  0  0  0  0  0  0
   42.6549    2.8219    0.0000 C   0  0  0  0  0  0  0  0  0  0  0  0
   33.2200   13.0036    0.0000 C   0  0  0  0  0  0  0  0  0  0  0  0
   28.6226    7.6237    0.0000 C   0  0  0  0  0  0  0  0  0  0  0  0
   25.3370  -12.2750    0.0000 C   0  0  0  0  0  0  0  0  0  0  0  0
   48.4269    9.6779    0.0000 C   0  0  0  0  0  0  0  0  0  0  0  0
   38.9684    4.2307    0.0000 C   0  0  0  0  0  0  0  0  0  0  0  0
    8.4594   -1.1557    0.0000 C   0  0  0  0  0  0  0  0  0  0  0  0
   20.6461   -2.8939    0.0000 C   0  0  0  0  0  0  0  0  0  0  0  0
    8.2532   -0.1771    0.0000 C   0  0  0  0  0  0  0  0  0  0  0  0
   16.8181  -11.4633    0.0000 C   0  0  0  0  0  0  0  0  0  0  0  0
    7.2588   -0.0709    0.0000 C   0  0  0  0  0  0  0  0  0  0  0  0
    6.8505   -0.9837    0.0000 C   0  0  0  0  0  0  0  0  0  0  0  0
   13.4984    1.8548    0.0000 C   0  0  0  0  0  0  0  0  0  0  0  0
    9.3722   -1.5640    0.0000 C   0  0  0  0  0  0  0  0  0  0  0  0
   11.9490   -5.5934    0.0000 C   0  0  0  0  0  0  0  0  0  0  0  0
   49.6248    8.6030    0.0000 C   0  0  0  0  0  0  0  0  0  0  0  0
   27.0254    5.1366    0.0000 C   0  0  0  0  0  0  0  0  0  0  0  0
   12.3061   -7.2881    0.0000 C   0  0  0  0  0  0  0  0  0  0  0  0
   29.3871   -5.1109    0.0000 C   0  0  0  0  0  0  0  0  0  0  0  0
   15.0282    1.3548    0.0000 C   0  0  0  0  0  0  0  0  0  0  0  0
   32.2258   13.1116    0.0000 C   0  0  0  0  0  0  0  0  0  0  0  0
   27.8794    8.2928    0.0000 C   0  0  0  0  0  0  0  0  0  0  0  0
   26.3550    4.3946    0.0000 C   0  0  0  0  0  0  0  0  0  0  0  0
   24.9303  -13.1885    0.0000 C   0  0  0  0  0  0  0  0  0  0  0  0
   14.0890    2.6618    0.0000 C   0  0  0  0  0  0  0  0  0  0  0  0
   30.3649   -5.3205    0.0000 C   0  0  0  0  0  0  0  0  0  0  0  0
   38.1024    3.7307    0.0000 C   0  0  0  0  0  0  0  0  0  0  0  0
   19.7783   -3.3909    0.0000 C   0  0  0  0  0  0  0  0  0  0  0  0
   46.9151    2.1335    0.0000 C   0  0  0  0  0  0  0  0  0  0  0  0
   15.8670  -11.7723    0.0000 C   0  0  0  0  0  0  0  0  0  0  0  0
   45.8946    0.7340    0.0000 C   0  0  0  0  0  0  0  0  0  0  0  0
   32.0388   11.3896    0.0000 C   0  0  0  0  0  0  0  0  0  0  0  0
   29.0384    9.5800    0.0000 C   0  0  0  0  0  0  0  0  0  0  0  0
   10.9705   -5.7996    0.0000 C   0  0  0  0  0  0  0  0  0  0  0  0
   23.3480  -12.4841    0.0000 C   0  0  0  0  0  0  0  0  0  0  0  0
   37.2364    5.2307    0.0000 C   0  0  0  0  0  0  0  0  0  0  0  0
   50.4908    8.1030    0.0000 C   0  0  0  0  0  0  0  0  0  0  0  0
   26.7180    6.0882    0.0000 C   0  0  0  0  0  0  0  0  0  0  0  0
   28.7167   -5.8529    0.0000 C   0  0  0  0  0  0  0  0  0  0  0  0
   20.6391   -4.8939    0.0000 C   0  0  0  0  0  0  0  0  0  0  0  0
   10.6598   -6.7501    0.0000 C   0  0  0  0  0  0  0  0  0  0  0  0
   47.7231    1.5443    0.0000 C   0  0  0  0  0  0  0  0  0  0  0  0
   15.3318  -10.1251    0.0000 C   0  0  0  0  0  0  0  0  0  0  0  0
   13.6854    3.5767    0.0000 C   0  0  0  0  0  0  0  0  0  0  0  0
   49.6248    6.6030    0.0000 C   0  0  0  0  0  0  0  0  0  0  0  0
    5.1350   -0.5229    0.0000 C   0  0  0  0  0  0  0  0  0  0  0  0
   47.6169    0.5500    0.0000 C   0  0  0  0  0  0  0  0  0  0  0  0
    5.4669   -2.0978    0.0000 C   0  0  0  0  0  0  0  0  0  0  0  0
   12.1006    2.8777    0.0000 C   0  0  0  0  0  0  0  0  0  0  0  0
    4.2690   -1.0229    0.0000 C   0  0  0  0  0  0  0  0  0  0  0  0
   48.6374    1.9495    0.0000 C   0  0  0  0  0  0  0  0  0  0  0  0
    3.4030   -0.5229    0.0000 C   0  0  0  0  0  0  0  0  0  0  0  0
   40.2848    0.4600    0.0000 C   0  0  0  0  0  0  0  0  0  0  0  0
    4.2690    0.9771    0.0000 C   0  0  0  0  0  0  0  0  0  0  0  0
   40.2831   -0.5400    0.0000 C   0  0  0  0  0  0  0  0  0  0  0  0
   39.4162   -1.0385    0.0000 C   0  0  0  0  0  0  0  0  0  0  0  0
   38.5476   -2.5370    0.0000 C   0  0  0  0  0  0  0  0  0  0  0  0
   38.5458   -3.5370    0.0000 C   0  0  0  0  0  0  0  0  0  0  0  0
   37.6789   -4.0355    0.0000 C   0  0  0  0  0  0  0  0  0  0  0  0
   37.6772   -5.0355    0.0000 C   0  0  0  0  0  0  0  0  0  0  0  0
   36.8103   -5.5340    0.0000 C   0  0  0  0  0  0  0  0  0  0  0  0
   36.8086   -6.5340    0.0000 C   0  0  0  0  0  0  0  0  0  0  0  0
   35.9417   -7.0325    0.0000 C   0  0  0  0  0  0  0  0  0  0  0  0
   35.9400   -8.0325    0.0000 C   0  0  0  0  0  0  0  0  0  0  0  0
   35.0731   -8.5310    0.0000 C   0  0  0  0  0  0  0  0  0  0  0  0
   35.0714   -9.5310    0.0000 C   0  0  0  0  0  0  0  0  0  0  0  0
   34.2045  -10.0295    0.0000 C   0  0  0  0  0  0  0  0  0  0  0  0
   34.2027  -11.0295    0.0000 C   0  0  0  0  0  0  0  0  0  0  0  0
   33.3358  -11.5280    0.0000 C   0  0  0  0  0  0  0  0  0  0  0  0
   33.3341  -12.5280    0.0000 C   0  0  0  0  0  0  0  0  0  0  0  0
   32.4672  -13.0265    0.0000 C   0  0  0  0  0  0  0  0  0  0  0  0
   32.4655  -14.0265    0.0000 C   0  0  0  0  0  0  0  0  0  0  0  0
  1 14  2  0
  2 15  2  0
  3 16  2  0
  4 17  2  0
  5 18  2  0
  6 19  2  0
  7 20  2  0
  8 21  2  0
  9 22  2  0
 10 23  2  0
 11 24  2  0
 12 25  2  0
 13 26  2  0
 14 37  1  0
 14 50  1  0
 14 80  1  0
 15 38  1  0
 15 51  1  0
 15 83  1  0
 16 39  1  0
 16 52  1  0
 16 84  1  0
 17 40  1  0
 17 53  1  0
 17 82  1  0
 18 42  1  0
 18 54  1  0
 18 81  1  0
 19 41  1  0
 19 55  1  0
 19 85  1  0
 20 45  1  0
 20 56  1  0
 20 86  1  0
 21 43  1  0
 21 57  1  0
 21 92  1  0
 22 46  1  0
 22 58  1  0
 22 87  1  0
 23 49  1  0
 23 61  1  0
 23 97  1  0
 24 47  1  0
 24 62  1  0
 24102  1  0
 25 59  1  0
 25 64  1  0
 25 99  1  0
 26 63  1  0
 26 75  1  0
 26 76  1  0
 27153  1  0
 27165  1  0
 28154  1  0
 28169  1  0
 29155  1  0
 29170  1  0
 30157  1  0
 30172  1  0
 31158  1  0
 31173  1  0
 32167  1  0
 32178  1  0
 33168  1  0
 33179  1  0
 34171  1  0
 34181  1  0
 35180  1  0
 35186  1  0
 36185  1  0
 36196  1  0
 37187  1  0
 38184  1  0
 39188  1  0
 40192  1  0
 41189  1  0
 42193  1  0
 43190  1  0
 44197  1  0
 44199  1  0
 45194  1  0
 46201  1  0
 47200  1  0
 48204  1  0
 48206  1  0
 49203  1  0
 59237  1  0
 60230  1  0
 60235  1  0
 63224  1  0
 65222  2  0
 66223  2  0
 67241  2  0
 68244  2  0
 69245  2  0
 70246  2  0
 71247  2  0
 72249  2  0
 73250  2  0
 74254  2  0
 75276  1  0
 77270  2  0
 78278  1  0
 79280  2  0
148 80  1  1
149 81  1  1
150 82  1  6
151 83  1  6
152 84  1  1
161 85  1  6
160 86  1  1
159 87  1  6
165 88  1  6
 88207  1  0
 88212  1  0
169 89  1  6
 89208  1  0
 89214  1  0
170 90  1  1
 90209  1  0
 90215  1  0
172 91  1  1
 91210  1  0
 91216  1  0
175 92  1  1
173 93  1  6
 93211  1  0
 93217  1  0
178 94  1  1
 94213  1  0
 94218  1  0
179 95  1  6
 95219  1  0
 95222  1  0
181 96  1  1
 96221  1  0
 96223  1  0
182 97  1  6
186 98  1  6
 98220  1  0
 98228  1  0
195 99  1  1
196100  1  1
100238  1  0
100241  1  0
199101  1  6
101236  1  0
101243  1  0
202102  1  1
206103  1  6
103252  1  0
103254  1  0
104212  2  0
104225  1  0
105214  2  0
105226  1  0
106215  2  0
106227  1  0
107216  2  0
107229  1  0
108217  2  0
108231  1  0
109218  2  0
109233  1  0
110207  1  0
110255  2  0
111222  1  0
111246  1  0
112208  1  0
112256  2  0
113223  1  0
113249  1  0
114209  1  0
114258  2  0
115210  1  0
115259  2  0
116228  2  0
116239  1  0
117211  1  0
117263  2  0
118213  1  0
118266  2  0
235119  1  1
119269  1  0
119271  1  0
120220  1  0
120268  2  0
121243  2  0
121248  1  0
122244  1  0
122255  1  0
232123  1  6
124245  1  0
124256  1  0
125247  1  0
125258  1  0
126250  1  0
126259  1  0
127241  1  0
127264  2  0
128236  1  0
128272  2  0
129251  2  0
129263  1  0
130254  1  0
130270  1  0
131253  2  0
131266  1  0
132260  2  0
132268  1  0
133251  1  0
134253  1  0
135255  1  0
136256  1  0
137258  1  0
138259  1  0
139260  1  0
140267  2  0
140272  1  0
141271  2  0
141273  1  0
142264  1  0
143267  1  0
144269  1  0
144277  2  0
145275  2  0
145277  1  0
146275  1  0
147279  1  0
147280  1  0
148153  1  0
148156  1  0
149154  1  0
149162  1  0
150155  1  0
150163  1  0
151157  1  0
151164  1  0
152158  1  0
152166  1  0
153184  1  6
154187  1  6
155188  1  1
156165  1  0
157190  1  1
158189  1  6
159167  1  0
159174  1  0
160168  1  0
160176  1  0
161171  1  0
161177  1  0
162169  1  0
163170  1  0
164172  1  0
166173  1  0
167192  1  1
168193  1  6
171194  1  1
174178  1  0
175180  1  0
175183  1  0
176179  1  0
177181  1  0
180200  1  6
182185  1  0
182191  1  0
183186  1  0
185201  1  1
191196  1  0
195197  1  0
195198  1  0
197203  1  6
198199  1  0
202204  1  0
202205  1  0
204224  1  6
205206  1  0
207225  2  0
208226  2  0
209227  2  0
210229  2  0
211231  2  0
213233  2  0
219240  2  0
220239  2  0
221242  2  0
225244  1  0
226245  1  0
227247  1  0
229250  1  0
230232  1  0
230237  1  1
231251  1  0
232234  1  0
233253  1  0
234235  1  0
236248  2  0
238257  2  0
239260  1  0
240246  1  0
240261  1  0
242249  1  0
242262  1  0
248267  1  0
252265  2  0
257264  1  0
265270  1  0
265274  1  0
269273  2  0
273275  1  0
276278  1  0
278279  1  0
280281  1  0
281282  1  0
282283  1  0
283284  1  0
284285  1  0
285286  1  0
286287  1  0
287288  1  0
288289  1  0
289290  1  0
290291  1  0
291292  1  0
292293  1  0
293294  1  0
294295  1  0
M  END
