 
 
 
 34 37  0  0  1  0  0  0  0  0999 V2000
    9.5325  -10.7238    0.0000 C   0  0  0  0  0  0  0  0  0  0  0  0
    9.5325  -12.1252    0.0000 N   0  0  0  0  0  0  0  0  0  0  0  0
   10.7938  -12.8260    0.0000 C   0  0  0  0  0  0  0  0  0  0  0  0
   11.9851  -12.1252    0.0000 C   0  0  0  0  0  0  0  0  0  0  0  0
   11.9851  -10.7238    0.0000 C   0  0  0  0  0  0  0  0  0  0  0  0
   10.7938  -10.0230    0.0000 N   0  0  0  0  0  0  0  0  0  0  0  0
   13.1763  -12.8260    0.0000 C   0  0  0  0  0  0  0  0  0  0  0  0
   14.3676  -12.1252    0.0000 C   0  0  0  0  0  0  0  0  0  0  0  0
   14.3676  -10.7238    0.0000 C   0  0  0  0  0  0  0  0  0  0  0  0
   13.1763  -10.0230    0.0000 C   0  0  0  0  0  0  0  0  0  0  0  0
   10.7938  -14.2274    0.0000 N   0  0  0  0  0  0  0  0  0  0  0  0
   11.9851  -14.9281    0.0000 C   0  0  0  0  0  0  0  0  0  0  0  0
   11.9851  -16.2595    0.0000 C   0  0  0  0  0  0  0  0  0  0  0  0
   13.1763  -16.9603    0.0000 C   0  0  0  0  0  0  0  0  0  0  0  0
   14.3676  -16.2595    0.0000 C   0  0  0  0  0  0  0  0  0  0  0  0
   14.3676  -14.9281    0.0000 C   0  0  0  0  0  0  0  0  0  0  0  0
   13.1763  -14.2274    0.0000 C   0  0  0  0  0  0  0  0  0  0  0  0
   15.6289  -16.9603    0.0000 F   0  0  0  0  0  0  0  0  0  0  0  0
   13.1763  -18.4318    0.0000 Cl  0  0  0  0  0  0  0  0  0  0  0  0
   15.5631  -12.8089    0.0000 N   0  0  0  0  0  0  0  0  0  0  0  0
   16.7548  -12.1141    0.0000 C   0  0  0  0  0  0  0  0  0  0  0  0
   17.9496  -12.7974    0.0000 C   0  0  0  0  0  0  0  0  0  0  0  0
   16.7490  -10.7101    0.0000 O   0  0  0  0  0  0  0  0  0  0  0  0
   19.1315  -12.1084    0.0000 C   0  0  0  0  0  0  0  0  0  0  0  0
   20.3312  -12.7946    0.0000 C   0  0  0  0  0  0  0  0  0  0  0  0
   21.5107  -12.1071    0.0000 N   0  0  0  0  0  0  0  0  0  0  0  0
   22.7116  -12.7940    0.0000 C   0  0  0  0  0  0  0  0  0  0  0  0
   21.5050  -10.7101    0.0000 C   0  0  0  0  0  0  0  0  0  0  0  0
   15.5753  -10.0328    0.0000 O   0  0  0  0  0  0  0  0  0  0  0  0
   15.5753   -8.6328    0.0000 C   0  0  0  0  0  0  0  0  0  0  0  0
   16.7415   -7.7855    0.0000 C   0  0  0  0  0  0  0  0  0  0  0  0
   16.2960   -6.4146    0.0000 C   0  0  0  0  0  0  0  0  0  0  0  0
   14.8545   -6.4147    0.0000 O   0  0  0  0  0  0  0  0  0  0  0  0
   14.4091   -7.7856    0.0000 C   0  0  0  0  0  0  0  0  0  0  0  0
  1  2  1  0     0  0
  2  3  2  0     0  0
  3  4  1  0     0  0
  4  5  1  0     0  0
  5  6  1  0     0  0
  1  6  2  0     0  0
  4  7  2  0     0  0
  7  8  1  0     0  0
  8  9  2  0     0  0
  9 10  1  0     0  0
  5 10  2  0     0  0
  3 11  1  0     0  0
 11 12  1  0     0  0
 12 13  2  0     0  0
 13 14  1  0     0  0
 14 15  2  0     0  0
 15 16  1  0     0  0
 16 17  2  0     0  0
 12 17  1  0     0  0
 15 18  1  0     0  0
 14 19  1  0     0  0
  8 20  1  0     0  0
 20 21  1  0     0  0
 21 22  1  0     0  0
 21 23  2  0     0  0
 22 24  2  0     0  0
 24 25  1  0     0  0
 25 26  1  0     0  0
 26 27  1  0     0  0
 26 28  1  0     0  0
  9 29  1  0     0  0
 30 29  1  6     0  0
 30 31  1  0     0  0
 31 32  1  0     0  0
 32 33  1  0     0  0
 33 34  1  0     0  0
 30 34  1  0     0  0
M  END
