 
     RDKit          2D

 70 73  0  0  1  0  0  0  0  0999 V2000
   19.4226  -22.2154    0.0000 C   0  0  0  0  0  0  0  0  0  0  0  0
   19.4226  -23.6234    0.0000 C   0  0  0  0  0  0  0  0  0  0  0  0
   20.6194  -24.3274    0.0000 C   0  0  0  0  0  0  0  0  0  0  0  0
   21.8865  -23.6234    0.0000 C   0  0  0  0  0  0  0  0  0  0  0  0
   21.8865  -22.2154    0.0000 C   0  0  0  0  0  0  0  0  0  0  0  0
   20.6194  -21.5115    0.0000 C   0  0  0  0  0  0  0  0  0  0  0  0
   23.0833  -21.5115    0.0000 C   0  0  0  0  0  0  0  0  0  0  0  0
   24.2801  -22.2154    0.0000 C   0  0  0  0  0  0  0  0  0  0  0  0
   25.5472  -21.5115    0.0000 C   0  0  0  0  0  0  0  0  0  0  0  0
   25.5472  -20.1035    0.0000 C   0  0  0  0  0  0  0  0  0  0  0  0
   24.3504  -19.3995    0.0000 C   0  0  0  0  0  0  0  0  0  0  0  0
   23.0833  -20.1035    0.0000 C   0  0  0  0  0  0  0  0  0  0  0  0
   20.6194  -20.1035    0.0000 C   0  0  0  0  0  0  0  0  0  0  0  0
   21.7457  -19.2587    0.0000 N   0  0  0  0  0  0  0  0  0  0  0  0
   21.3233  -17.9916    0.0000 N   0  0  0  0  0  0  0  0  0  0  0  0
   19.9154  -17.9916    0.0000 N   0  0  0  0  0  0  0  0  0  0  0  0
   19.4930  -19.2587    0.0000 N   0  0  0  0  0  0  0  0  0  0  0  0
   26.7440  -19.3995    0.0000 C   0  0  0  0  0  0  0  0  0  0  0  0
   26.7440  -17.9916    0.0000 N   0  0  0  0  0  0  0  0  0  0  0  0
   27.9407  -17.2876    0.0000 C   0  0  0  0  0  0  0  0  0  0  0  0
   25.5472  -17.2876    0.0000 C   0  0  0  0  0  0  0  0  0  0  0  0
   24.3504  -17.9916    0.0000 O   0  0  0  0  0  0  0  0  0  0  0  0
   25.5472  -15.8797    0.0000 C   0  0  0  0  0  0  0  0  0  0  0  0
   24.3504  -15.1757    0.0000 C   0  0  0  0  0  0  0  0  0  0  0  0
   24.3504  -13.7677    0.0000 C   0  0  0  0  0  0  0  0  0  0  0  0
   23.1537  -13.0637    0.0000 C   0  0  0  0  0  0  0  0  0  0  0  0
   29.1375  -17.9916    0.0000 C   0  0  0  0  0  0  0  0  0  0  0  0
   30.3343  -17.2876    0.0000 O   0  0  0  0  0  0  0  0  0  0  0  0
   29.1375  -19.3995    0.0000 O   0  0  0  0  0  0  0  0  0  0  0  0
   27.9407  -15.8797    0.0000 C   0  0  0  0  0  0  0  0  0  0  0  0
   26.7440  -15.1757    0.0000 C   0  0  0  0  0  0  0  0  0  0  0  0
   29.1375  -15.1757    0.0000 C   0  0  0  0  0  0  0  0  0  0  0  0
   29.5695  -18.6304    0.0000 C   0  0  0  0  0  0  0  0  0  0  0  0
   28.3142  -19.3278    0.0000 C   0  0  0  0  0  0  0  0  0  0  0  0
   30.7550  -19.3278    0.0000 C   0  0  0  0  0  0  0  0  0  0  0  0
   29.5698  -17.2357    0.0000 S   0  0  0  0  0  0  0  0  0  0  0  0
   28.3142  -20.6528    0.0000 C   0  0  0  0  0  0  0  0  0  0  0  0
   30.7550  -20.6528    0.0000 C   0  0  0  0  0  0  0  0  0  0  0  0
   29.5698  -15.8409    0.0000 O   0  0  0  0  0  0  0  0  0  0  0  0
   28.1750  -17.2357    0.0000 O   0  0  0  0  0  0  0  0  0  0  0  0
   30.9645  -17.2357    0.0000 O   0  0  0  0  0  0  0  0  0  0  0  0
   29.5695  -21.3502    0.0000 C   0  0  0  0  0  0  0  0  0  0  0  0
   19.3368  -16.0762    0.0000 C   0  0  0  0  0  0  0  0  0  0  0  0
   20.5198  -15.3803    0.0000 C   0  0  0  0  0  0  0  0  0  0  0  0
   18.1539  -15.3803    0.0000 C   0  0  0  0  0  0  0  0  0  0  0  0
   19.3368  -18.4421    0.0000 C   0  0  0  0  0  0  0  0  0  0  0  0
   20.5198  -13.9886    0.0000 C   0  0  0  0  0  0  0  0  0  0  0  0
   21.7028  -16.0762    0.0000 C   0  0  0  0  0  0  0  0  0  0  0  0
   18.1539  -13.9886    0.0000 C   0  0  0  0  0  0  0  0  0  0  0  0
   16.9709  -16.0066    0.0000 C   0  0  0  0  0  0  0  0  0  0  0  0
   20.5198  -19.1380    0.0000 C   0  0  0  0  0  0  0  0  0  0  0  0
   18.1539  -19.1380    0.0000 C   0  0  0  0  0  0  0  0  0  0  0  0
   19.3368  -13.2927    0.0000 N   0  0  0  0  0  0  0  0  0  0  0  0
   21.7028  -13.2927    0.0000 C   0  0  0  0  0  0  0  0  0  0  0  0
   22.8858  -15.3803    0.0000 O   0  0  0  0  0  0  0  0  0  0  0  0
   21.7028  -17.3983    0.0000 O   0  0  0  0  0  0  0  0  0  0  0  0
   16.9709  -13.2927    0.0000 C   0  0  0  0  0  0  0  0  0  0  0  0
   15.7879  -15.3803    0.0000 O   0  0  0  0  0  0  0  0  0  0  0  0
   16.9709  -17.3983    0.0000 O   0  0  0  0  0  0  0  0  0  0  0  0
   20.5198  -20.4601    0.0000 C   0  0  0  0  0  0  0  0  0  0  0  0
   21.7028  -18.4421    0.0000 Cl  0  0  0  0  0  0  0  0  0  0  0  0
   18.1539  -20.4601    0.0000 C   0  0  0  0  0  0  0  0  0  0  0  0
   22.8858  -13.9886    0.0000 O   0  0  0  0  0  0  0  0  0  0  0  0
   24.0687  -16.0762    0.0000 C   0  0  0  0  0  0  0  0  0  0  0  0
   14.6049  -16.0066    0.0000 C   0  0  0  0  0  0  0  0  0  0  0  0
   19.3368  -21.1560    0.0000 C   0  0  0  0  0  0  0  0  0  0  0  0
   24.0687  -13.2927    0.0000 C   0  0  0  0  0  0  0  0  0  0  0  0
   25.2517  -15.3803    0.0000 C   0  0  0  0  0  0  0  0  0  0  0  0
   25.2517  -13.9886    0.0000 C   0  0  0  0  0  0  0  0  0  0  0  0
   26.4347  -13.2927    0.0000 N   0  0  0  0  0  0  0  0  0  0  0  0
  1  2  2  0
  2  3  1  0
  3  4  2  0
  4  5  1  0
  5  6  2  0
  1  6  1  0
  5  7  1  0
  7  8  2  0
  8  9  1  0
  9 10  2  0
 10 11  1  0
 11 12  2  0
  7 12  1  0
  6 13  1  0
 13 14  1  0
 14 15  1  0
 15 16  2  0
 16 17  1  0
 13 17  2  0
 10 18  1  0
 18 19  1  0
 19 20  1  0
 19 21  1  0
 21 22  2  0
 21 23  1  0
 23 24  1  0
 24 25  1  0
 25 26  1  0
 20 27  1  0
 27 28  2  0
 27 29  1  0
 20 30  1  1
 30 31  1  0
 30 32  1  0
 33 34  2  0
 33 35  1  0
 33 36  1  0
 34 37  1  0
 35 38  2  0
 36 39  1  0
 36 40  2  0
 36 41  2  0
 37 42  2  0
 38 42  1  0
 43 44  1  0
 43 45  1  0
 43 46  1  0
 44 47  2  0
 44 48  1  0
 45 49  2  0
 45 50  1  0
 46 51  2  0
 46 52  1  0
 47 53  1  0
 47 54  1  0
 48 55  1  0
 48 56  2  0
 49 57  1  0
 50 58  1  0
 50 59  2  0
 51 60  1  0
 51 61  1  0
 52 62  2  0
 54 63  1  0
 55 64  1  0
 58 65  1  0
 60 66  2  0
 63 67  1  0
 64 68  1  0
 67 69  1  0
 69 70  1  0
 49 53  1  0
 62 66  1  0
M  END
