 
 
 
 50 51  0  0  1  0  0  0  0  0999 V2000
   26.0737  -14.3060    0.0000 C   0  0  0  0  0  0  0  0  0  0  0  0
   27.4759  -14.3060    0.0000 C   0  0  0  0  0  0  0  0  0  0  0  0
   25.3727  -15.5202    0.0000 C   0  0  0  0  0  0  0  0  0  0  0  0
   23.9707  -15.5202    0.0000 O   0  0  0  0  0  0  0  0  0  0  0  0
   26.0641  -16.7175    0.0000 O   0  0  0  0  0  0  0  0  0  0  0  0
   28.1769  -15.5202    0.0000 C   0  0  0  0  0  0  0  0  0  0  0  0
   29.5788  -15.5202    0.0000 O   0  0  0  0  0  0  0  0  0  0  0  0
   27.4855  -16.7175    0.0000 O   0  0  0  0  0  0  0  0  0  0  0  0
    6.5739  -14.4223    0.0000 C   0  0  0  0  0  0  0  0  0  0  0  0
    6.5739  -15.8855    0.0000 N   0  0  0  0  0  0  0  0  0  0  0  0
    7.8281  -16.5823    0.0000 C   0  0  0  0  0  0  0  0  0  0  0  0
    9.0822  -15.8855    0.0000 C   0  0  0  0  0  0  0  0  0  0  0  0
    9.0822  -14.4223    0.0000 C   0  0  0  0  0  0  0  0  0  0  0  0
    7.8281  -13.7255    0.0000 N   0  0  0  0  0  0  0  0  0  0  0  0
   10.2667  -16.5823    0.0000 C   0  0  0  0  0  0  0  0  0  0  0  0
   11.4512  -15.8855    0.0000 C   0  0  0  0  0  0  0  0  0  0  0  0
   11.4512  -14.4223    0.0000 C   0  0  0  0  0  0  0  0  0  0  0  0
   10.2667  -13.7255    0.0000 C   0  0  0  0  0  0  0  0  0  0  0  0
    7.8281  -17.9758    0.0000 N   0  0  0  0  0  0  0  0  0  0  0  0
    9.0822  -18.6725    0.0000 C   0  0  0  0  0  0  0  0  0  0  0  0
    9.0822  -19.9964    0.0000 C   0  0  0  0  0  0  0  0  0  0  0  0
   10.2667  -20.6931    0.0000 C   0  0  0  0  0  0  0  0  0  0  0  0
   11.4512  -19.9964    0.0000 C   0  0  0  0  0  0  0  0  0  0  0  0
   11.4512  -18.6725    0.0000 C   0  0  0  0  0  0  0  0  0  0  0  0
   10.2667  -17.9758    0.0000 C   0  0  0  0  0  0  0  0  0  0  0  0
   12.7054  -20.6931    0.0000 F   0  0  0  0  0  0  0  0  0  0  0  0
   10.2667  -22.1563    0.0000 Cl  0  0  0  0  0  0  0  0  0  0  0  0
   12.6357  -16.5126    0.0000 N   0  0  0  0  0  0  0  0  0  0  0  0
   13.8202  -15.8158    0.0000 C   0  0  0  0  0  0  0  0  0  0  0  0
   15.0047  -16.5126    0.0000 C   0  0  0  0  0  0  0  0  0  0  0  0
   13.8202  -14.4223    0.0000 O   0  0  0  0  0  0  0  0  0  0  0  0
   16.1892  -15.8158    0.0000 C   0  0  0  0  0  0  0  0  0  0  0  0
   17.3737  -16.5126    0.0000 C   0  0  0  0  0  0  0  0  0  0  0  0
   18.5582  -15.8158    0.0000 N   0  0  0  0  0  0  0  0  0  0  0  0
   19.7427  -16.5126    0.0000 C   0  0  0  0  0  0  0  0  0  0  0  0
   18.5582  -14.4223    0.0000 C   0  0  0  0  0  0  0  0  0  0  0  0
   12.6357  -13.7952    0.0000 O   0  0  0  0  0  0  0  0  0  0  0  0
   12.6357  -12.4017    0.0000 C   0  0  0  0  0  0  0  0  0  0  0  0
   13.8202  -11.4959    0.0000 C   0  0  0  0  0  0  0  0  0  0  0  0
   13.3325  -10.1721    0.0000 C   0  0  0  0  0  0  0  0  0  0  0  0
   11.9390  -10.1721    0.0000 O   0  0  0  0  0  0  0  0  0  0  0  0
   11.4512  -11.4959    0.0000 C   0  0  0  0  0  0  0  0  0  0  0  0
   26.0737  -14.3060    0.0000 C   0  0  0  0  0  0  0  0  0  0  0  0
   27.4759  -14.3060    0.0000 C   0  0  0  0  0  0  0  0  0  0  0  0
   28.1769  -15.5202    0.0000 C   0  0  0  0  0  0  0  0  0  0  0  0
   29.5788  -15.5202    0.0000 O   0  0  0  0  0  0  0  0  0  0  0  0
   27.4855  -16.7175    0.0000 O   0  0  0  0  0  0  0  0  0  0  0  0
   25.3727  -15.5202    0.0000 C   0  0  0  0  0  0  0  0  0  0  0  0
   23.9707  -15.5202    0.0000 O   0  0  0  0  0  0  0  0  0  0  0  0
   26.0641  -16.7175    0.0000 O   0  0  0  0  0  0  0  0  0  0  0  0
  9 10  1  0     0  0
 10 11  2  0     0  0
 11 12  1  0     0  0
 12 13  1  0     0  0
 13 14  1  0     0  0
  9 14  2  0     0  0
 12 15  2  0     0  0
 15 16  1  0     0  0
 16 17  2  0     0  0
 17 18  1  0     0  0
 13 18  2  0     0  0
 11 19  1  0     0  0
 19 20  1  0     0  0
 20 21  2  0     0  0
 21 22  1  0     0  0
 22 23  2  0     0  0
 23 24  1  0     0  0
 24 25  2  0     0  0
 20 25  1  0     0  0
 23 26  1  0     0  0
 22 27  1  0     0  0
 16 28  1  0     0  0
 28 29  1  0     0  0
 29 30  1  0     0  0
 29 31  2  0     0  0
 30 32  2  0     0  0
 32 33  1  0     0  0
 33 34  1  0     0  0
 34 35  1  0     0  0
 34 36  1  0     0  0
 17 37  1  0     0  0
 38 37  1  6     0  0
 38 39  1  0     0  0
 39 40  1  0     0  0
 40 41  1  0     0  0
 41 42  1  0     0  0
 38 42  1  0     0  0
  1  2  2  0     0  0
  1  3  1  0     0  0
  3  4  1  0     0  0
  3  5  2  0     0  0
  2  6  1  0     0  0
  6  7  2  0     0  0
  6  8  1  0     0  0
 43 44  2  0     0  0
 43 48  1  0     0  0
 48 49  1  0     0  0
 48 50  2  0     0  0
 44 45  1  0     0  0
 45 46  2  0     0  0
 45 47  1  0     0  0
M  STY  1   1 MUL
M  SLB  1   1   1
M  SCN  1   1 HT 
M  SAL   1 15   1   2   3   4   5   6   7   8  43  44  45  46  47  48  49
M  SAL   1  1  50
M  SPA   1  8   1   2   6   7   8   3   4   5
M  SDI   1  4   22.3300  -18.2700   22.3300  -13.3700
M  SDI   1  4   30.5200  -13.3700   30.5200  -18.2700
M  SMT   1 2
M  END
