 
     RDKit          2D

 36 40  0  0  1  0  0  0  0  0999 V2000
   24.9200  -18.9000    0.0000 C   0  0  0  0  0  0  0  0  0  0  0  0
   24.9200  -20.3000    0.0000 C   0  0  0  0  0  0  0  0  0  0  0  0
   26.1100  -21.0000    0.0000 C   0  0  0  0  0  0  0  0  0  0  0  0
   27.3700  -20.3000    0.0000 C   0  0  0  0  0  0  0  0  0  0  0  0
   27.3700  -18.9000    0.0000 C   0  0  0  0  0  0  0  0  0  0  0  0
   26.1100  -18.2000    0.0000 C   0  0  0  0  0  0  0  0  0  0  0  0
   28.5600  -21.0000    0.0000 C   0  0  0  0  0  0  0  0  0  0  0  0
   29.7500  -20.3000    0.0000 C   0  0  0  0  0  0  0  0  0  0  0  0
   29.7500  -18.9000    0.0000 C   0  0  0  0  0  0  0  0  0  0  0  0
   28.5600  -18.2000    0.0000 C   0  0  0  0  0  0  0  0  0  0  0  0
   26.1100  -16.8000    0.0000 C   0  0  0  0  0  0  0  0  0  0  0  0
   30.9400  -21.0000    0.0000 N   0  0  0  0  0  0  0  0  0  0  0  0
   32.1300  -20.3000    0.0000 C   0  0  0  0  0  0  0  0  0  0  0  0
   33.3200  -21.0000    0.0000 O   0  0  0  0  0  0  0  0  0  0  0  0
   32.1300  -18.9000    0.0000 O   0  0  0  0  0  0  0  0  0  0  0  0
   34.5100  -20.3000    0.0000 C   0  0  0  0  0  0  0  0  0  0  0  0
   35.7000  -21.0000    0.0000 C   0  0  0  0  0  0  0  0  0  0  0  0
   24.9200  -16.1000    0.0000 C   0  0  0  0  0  0  0  0  0  0  0  0
   24.9200  -14.7000    0.0000 C   0  0  0  0  0  0  0  0  0  0  0  0
   26.1100  -14.0000    0.0000 C   0  0  0  0  0  0  0  0  0  0  0  0
   26.1100  -12.6000    0.0000 C   0  0  0  0  0  0  0  0  0  0  0  0
   24.9200  -11.9000    0.0000 C   0  0  0  0  0  0  0  0  0  0  0  0
   23.7300  -12.6000    0.0000 C   0  0  0  0  0  0  0  0  0  0  0  0
   23.7300  -14.0000    0.0000 N   0  0  0  0  0  0  0  0  0  0  0  0
   24.9200  -10.5000    0.0000 C   0  0  0  0  0  0  0  0  0  0  0  0
   26.1100   -9.8000    0.0000 C   0  0  0  0  0  0  0  0  0  0  0  0
   26.1100   -8.4000    0.0000 C   0  0  0  0  0  0  0  0  0  0  0  0
   24.9200   -7.7000    0.0000 C   0  0  0  0  0  0  0  0  0  0  0  0
   23.7300   -8.4000    0.0000 C   0  0  0  0  0  0  0  0  0  0  0  0
   23.7300   -9.8000    0.0000 C   0  0  0  0  0  0  0  0  0  0  0  0
   27.3000   -7.7000    0.0000 F   0  0  0  0  0  0  0  0  0  0  0  0
   23.5885  -18.4674    0.0000 C   0  0  0  0  0  0  0  0  0  0  0  0
   22.7656  -19.6000    0.0000 O   0  0  0  0  0  0  0  0  0  0  0  0
   23.5885  -20.7326    0.0000 C   0  0  0  0  0  0  0  0  0  0  0  0
   23.1597  -17.1478    0.0000 C   0  0  0  0  0  0  0  0  0  0  0  0
   23.1597  -22.0522    0.0000 O   0  0  0  0  0  0  0  0  0  0  0  0
  1  2  1  0
  2  3  1  1
  4  3  1  1
  4  5  1  0
  5  6  1  0
  1  6  1  0
  4  7  1  0
  7  8  1  0
  8  9  1  0
  9 10  1  0
  5 10  1  6
  6 11  1  1
  8 12  1  1
 12 13  1  0
 13 14  1  0
 13 15  2  0
 14 16  1  0
 16 17  1  0
 11 18  2  0
 18 19  1  0
 19 20  2  0
 20 21  1  0
 21 22  2  0
 22 23  1  0
 23 24  2  0
 19 24  1  0
 22 25  1  0
 25 26  2  0
 26 27  1  0
 27 28  2  0
 28 29  1  0
 29 30  2  0
 25 30  1  0
 27 31  1  0
  1 32  1  1
 32 33  1  0
 33 34  1  0
  2 34  1  0
 32 35  1  6
 34 36  2  0
M  END
