 
     RDKit          2D

 49 58  0  0  1  0  0  0  0  0999 V2000
   25.7600  -21.4200    0.0000 C   0  0  0  0  0  0  0  0  0  0  0  0
   24.5000  -22.1200    0.0000 C   0  0  0  0  0  0  0  0  0  0  0  0
   26.8800  -22.1200    0.0000 C   0  0  0  0  0  0  0  0  0  0  0  0
   26.8800  -20.6500    0.0000 O   0  0  0  0  0  0  0  0  0  0  0  0
   24.6400  -20.6500    0.0000 C   0  0  0  0  0  0  0  0  0  0  0  0
   24.5000  -23.4500    0.0000 C   0  0  0  0  0  0  0  0  0  0  0  0
   23.3800  -21.4200    0.0000 C   0  0  0  0  0  0  0  0  0  0  0  0
   23.8700  -20.5800    0.0000 C   0  0  0  0  0  0  0  0  0  0  0  0
   26.8800  -23.4500    0.0000 C   0  0  0  0  0  0  0  0  0  0  0  0
   26.4600  -19.3200    0.0000 C   0  0  0  0  0  0  0  0  0  0  0  0
   25.0600  -19.3200    0.0000 C   0  0  0  0  0  0  0  0  0  0  0  0
   23.3800  -24.1500    0.0000 C   0  0  0  0  0  0  0  0  0  0  0  0
   22.1900  -22.1200    0.0000 C   0  0  0  0  0  0  0  0  0  0  0  0
   27.2300  -18.2700    0.0000 O   0  0  0  0  0  0  0  0  0  0  0  0
   22.1900  -23.4500    0.0000 C   0  0  0  0  0  0  0  0  0  0  0  0
   23.3800  -25.5500    0.0000 C   0  0  0  0  0  0  0  0  0  0  0  0
   21.0000  -24.1500    0.0000 C   0  0  0  0  0  0  0  0  0  0  0  0
   22.1900  -26.1800    0.0000 C   0  0  0  0  0  0  0  0  0  0  0  0
   21.0000  -25.4800    0.0000 C   0  0  0  0  0  0  0  0  0  0  0  0
   19.8100  -23.4500    0.0000 C   0  0  0  0  0  0  0  0  0  0  0  0
   21.0000  -22.7500    0.0000 C   0  0  0  0  0  0  0  0  0  0  0  0
   19.8100  -26.1800    0.0000 C   0  0  0  0  0  0  0  0  0  0  0  0
   18.6200  -24.1500    0.0000 C   0  0  0  0  0  0  0  0  0  0  0  0
   18.6200  -25.4800    0.0000 C   0  0  0  0  0  0  0  0  0  0  0  0
   17.4300  -26.1800    0.0000 O   0  0  0  0  0  0  0  0  0  0  0  0
   28.0924  -22.8200    0.0000 C   0  0  0  0  0  0  0  0  0  0  0  0
   23.3800  -26.9500    0.0000 C   0  0  0  0  0  0  0  0  0  0  0  0
   20.4641  -16.5790    0.0000 C   0  0  0  0  0  0  0  0  0  0  0  0
   20.4525  -15.2599    0.0000 C   0  0  0  0  0  0  0  0  0  0  0  0
   19.3184  -17.2675    0.0000 C   0  0  0  0  0  0  0  0  0  0  0  0
   22.7610  -16.5558    0.0000 C   0  0  0  0  0  0  0  0  0  0  0  0
   21.5923  -14.5829    0.0000 C   0  0  0  0  0  0  0  0  0  0  0  0
   19.2897  -14.6060    0.0000 C   0  0  0  0  0  0  0  0  0  0  0  0
   20.4069  -13.9233    0.0000 C   0  0  0  0  0  0  0  0  0  0  0  0
   18.1671  -16.6137    0.0000 C   0  0  0  0  0  0  0  0  0  0  0  0
   19.3474  -18.5982    0.0000 C   0  0  0  0  0  0  0  0  0  0  0  0
   22.7435  -15.2310    0.0000 C   0  0  0  0  0  0  0  0  0  0  0  0
   22.6337  -13.9233    0.0000 C   0  0  0  0  0  0  0  0  0  0  0  0
   18.2198  -15.2887    0.0000 C   0  0  0  0  0  0  0  0  0  0  0  0
   17.0216  -17.3022    0.0000 C   0  0  0  0  0  0  0  0  0  0  0  0
   18.2020  -19.2926    0.0000 C   0  0  0  0  0  0  0  0  0  0  0  0
   23.6808  -13.2580    0.0000 C   0  0  0  0  0  0  0  0  0  0  0  0
   17.0390  -18.6328    0.0000 C   0  0  0  0  0  0  0  0  0  0  0  0
   15.8414  -16.6542    0.0000 C   0  0  0  0  0  0  0  0  0  0  0  0
   15.8992  -19.3387    0.0000 C   0  0  0  0  0  0  0  0  0  0  0  0
   14.6901  -17.3484    0.0000 C   0  0  0  0  0  0  0  0  0  0  0  0
   14.7190  -18.6967    0.0000 C   0  0  0  0  0  0  0  0  0  0  0  0
   13.5735  -19.3908    0.0000 O   0  0  0  0  0  0  0  0  0  0  0  0
   21.5923  -12.9182    0.0000 O   0  0  0  0  0  0  0  0  0  0  0  0
  1  2  1  0
  1  3  1  0
  1  4  1  0
  1  5  1  6
  2  6  1  0
  2  7  1  0
  2  8  1  1
  3  9  1  0
  4 10  1  0
  5 11  1  0
  6 12  1  0
  7 13  1  0
 10 14  2  0
 12 15  1  0
 12 16  1  6
 15 17  1  0
 16 18  1  0
 17 19  1  0
 17 20  1  0
 17 21  1  1
 19 22  2  0
 20 23  1  0
 22 24  1  0
 24 25  2  0
  6  9  1  1
 10 11  1  0
 15 13  1  1
 18 19  1  0
 23 24  1  0
  3 26  1  1
  9 26  1  1
 16 27  1  1
 18 27  1  1
 28 29  1  0
 28 30  1  0
 28 31  1  1
 29 32  1  0
 29 33  1  0
 29 34  1  1
 30 35  1  0
 30 36  1  6
 31 37  1  0
 32 38  1  0
 33 39  1  0
 35 40  1  0
 36 41  1  0
 38 42  3  0
 40 43  2  0
 40 44  1  0
 43 45  1  0
 44 46  2  0
 45 47  2  0
 47 48  1  0
 32 37  1  0
 35 39  1  1
 41 43  1  0
 46 47  1  0
 32 49  1  1
M  END
