 
     RDKit          2D

 33 36  0  0  1  0  0  0  0  0999 V2000
   29.1900  -22.1200    0.0000 C   0  0  0  0  0  0  0  0  0  0  0  0
   29.1900  -23.4500    0.0000 C   0  0  0  0  0  0  0  0  0  0  0  0
   30.3100  -21.4200    0.0000 C   0  0  0  0  0  0  0  0  0  0  0  0
   28.0000  -21.4200    0.0000 C   0  0  0  0  0  0  0  0  0  0  0  0
   29.1900  -20.7900    0.0000 C   0  0  0  0  0  0  0  0  0  0  0  0
   28.0000  -24.1500    0.0000 C   0  0  0  0  0  0  0  0  0  0  0  0
   31.5000  -23.4500    0.0000 C   0  0  0  0  0  0  0  0  0  0  0  0
   31.5000  -22.1200    0.0000 C   0  0  0  0  0  0  0  0  0  0  0  0
   30.3100  -20.0900    0.0000 C   0  0  0  0  0  0  0  0  0  0  0  0
   26.8100  -22.1200    0.0000 C   0  0  0  0  0  0  0  0  0  0  0  0
   26.8100  -23.4500    0.0000 C   0  0  0  0  0  0  0  0  0  0  0  0
   28.0000  -25.4800    0.0000 C   0  0  0  0  0  0  0  0  0  0  0  0
   31.5000  -19.3900    0.0000 C   0  0  0  0  0  0  0  0  0  0  0  0
   29.0500  -19.3900    0.0000 O   0  0  0  0  0  0  0  0  0  0  0  0
   25.6200  -21.4200    0.0000 O   0  0  0  0  0  0  0  0  0  0  0  0
   25.6900  -24.1500    0.0000 C   0  0  0  0  0  0  0  0  0  0  0  0
   26.8100  -26.1800    0.0000 C   0  0  0  0  0  0  0  0  0  0  0  0
   32.7600  -20.1600    0.0000 O   0  0  0  0  0  0  0  0  0  0  0  0
   25.6900  -25.4800    0.0000 C   0  0  0  0  0  0  0  0  0  0  0  0
   24.5000  -23.5200    0.0000 C   0  0  0  0  0  0  0  0  0  0  0  0
   33.9500  -19.4600    0.0000 C   0  0  0  0  0  0  0  0  0  0  0  0
   24.5000  -26.1800    0.0000 C   0  0  0  0  0  0  0  0  0  0  0  0
   23.3100  -24.1500    0.0000 C   0  0  0  0  0  0  0  0  0  0  0  0
   35.1400  -20.1600    0.0000 C   0  0  0  0  0  0  0  0  0  0  0  0
   33.9500  -18.0600    0.0000 O   0  0  0  0  0  0  0  0  0  0  0  0
   23.3100  -25.6200    0.0000 C   0  0  0  0  0  0  0  0  0  0  0  0
   36.3300  -19.4600    0.0000 C   0  0  0  0  0  0  0  0  0  0  0  0
   37.5200  -20.1600    0.0000 C   0  0  0  0  0  0  0  0  0  0  0  0
   22.1200  -26.3200    0.0000 O   0  0  0  0  0  0  0  0  0  0  0  0
   25.6900  -22.7500    0.0000 C   0  0  0  0  0  0  0  0  0  0  0  0
   38.7100  -19.4600    0.0000 C   0  0  0  0  0  0  0  0  0  0  0  0
   39.9700  -20.1600    0.0000 C   0  0  0  0  0  0  0  0  0  0  0  0
   31.5924  -21.0700    0.0000 O   0  0  0  0  0  0  0  0  0  0  0  0
  2  6  1  0
  2  7  1  1
  3  8  1  0
  3  9  1  0
  4 10  1  0
  6 11  1  0
  6 12  1  6
  9 13  1  0
  9 14  2  0
 10 15  1  1
 11 16  1  0
 12 17  1  0
 13 18  1  0
 16 19  1  0
 16 20  1  0
 18 21  1  0
 19 22  2  0
 20 23  1  0
 21 24  1  0
 21 25  2  0
 22 26  1  0
 24 27  1  0
 27 28  1  0
  7  8  1  0
 11 10  1  1
 17 19  1  0
 23 26  1  0
 26 29  2  0
  1  2  1  0
 16 30  1  1
  1  3  1  0
 28 31  1  0
  1  4  1  0
 31 32  1  0
  1  5  1  1
  3 33  1  6
M  END
