 
     RDKit          2D

 90 93  0  0  0  0  0  0  0  0999 V2000
   14.2800  -19.3900    0.0000 C   0  0  0  0  0  0  0  0  0  0  0  0
   14.2800  -20.7900    0.0000 C   0  0  0  0  0  0  0  0  0  0  0  0
   15.4924  -21.4900    0.0000 C   0  0  0  0  0  0  0  0  0  0  0  0
   16.7049  -20.7900    0.0000 C   0  0  0  0  0  0  0  0  0  0  0  0
   16.7049  -19.3900    0.0000 C   0  0  0  0  0  0  0  0  0  0  0  0
   15.4924  -18.6900    0.0000 C   0  0  0  0  0  0  0  0  0  0  0  0
   18.0364  -21.2226    0.0000 N   0  0  0  0  0  0  0  0  0  0  0  0
   18.8593  -20.0900    0.0000 C   0  0  0  0  0  0  0  0  0  0  0  0
   18.0364  -18.9574    0.0000 N   0  0  0  0  0  0  0  0  0  0  0  0
   20.2300  -20.0900    0.0000 S   0  0  0  0  0  0  0  0  0  0  0  0
   20.9300  -21.3024    0.0000 C   0  0  0  0  0  0  0  0  0  0  0  0
   20.9300  -18.8776    0.0000 O   0  0  0  0  0  0  0  0  0  0  0  0
   22.3298  -21.3024    0.0000 C   0  0  0  0  0  0  0  0  0  0  0  0
   23.0203  -22.4980    0.0000 C   0  0  0  0  0  0  0  0  0  0  0  0
   24.4203  -22.4978    0.0000 C   0  0  0  0  0  0  0  0  0  0  0  0
   25.1201  -21.2853    0.0000 C   0  0  0  0  0  0  0  0  0  0  0  0
   24.4297  -20.0898    0.0000 C   0  0  0  0  0  0  0  0  0  0  0  0
   23.0297  -20.0899    0.0000 N   0  0  0  0  0  0  0  0  0  0  0  0
   22.3349  -23.6852    0.0000 C   0  0  0  0  0  0  0  0  0  0  0  0
   25.1110  -23.6932    0.0000 O   0  0  0  0  0  0  0  0  0  0  0  0
   26.5296  -23.6932    0.0000 C   0  0  0  0  0  0  0  0  0  0  0  0
   27.2156  -24.8806    0.0000 C   0  0  0  0  0  0  0  0  0  0  0  0
   28.4280  -24.1806    0.0000 F   0  0  0  0  0  0  0  0  0  0  0  0
   26.0032  -25.5806    0.0000 F   0  0  0  0  0  0  0  0  0  0  0  0
   27.9156  -26.0931    0.0000 F   0  0  0  0  0  0  0  0  0  0  0  0
   24.5313  -17.0264    0.0000 C   0  0  0  0  0  0  0  0  0  0  0  0
   24.5313  -18.4300    0.0000 C   0  0  0  0  0  0  0  0  0  0  0  0
   25.9349  -18.4300    0.0000 N   0  0  0  0  0  0  0  0  0  0  0  0
   25.9349  -17.0264    0.0000 C   0  0  0  0  0  0  0  0  0  0  0  0
   27.2683  -18.8510    0.0000 C   0  0  0  0  0  0  0  0  0  0  0  0
   28.1103  -17.7281    0.0000 C   0  0  0  0  0  0  0  0  0  0  0  0
   27.2683  -16.6053    0.0000 S   0  0  0  0  0  0  0  0  0  0  0  0
   29.0929  -18.7107    0.0000 C   0  0  0  0  0  0  0  0  0  0  0  0
   29.0929  -16.7456    0.0000 C   0  0  0  0  0  0  0  0  0  0  0  0
   27.7595  -20.1844    0.0000 C   0  0  0  0  0  0  0  0  0  0  0  0
   29.1630  -20.1844    0.0000 O   0  0  0  0  0  0  0  0  0  0  0  0
   26.9173  -21.3072    0.0000 O   0  0  0  0  0  0  0  0  0  0  0  0
   23.3383  -16.3246    0.0000 N   0  0  0  0  0  0  0  0  0  0  0  0
   22.1452  -17.0264    0.0000 C   0  0  0  0  0  0  0  0  0  0  0  0
   23.3383  -19.1317    0.0000 O   0  0  0  0  0  0  0  0  0  0  0  0
   22.1452  -18.4300    0.0000 O   0  0  0  0  0  0  0  0  0  0  0  0
   20.9268  -16.3295    0.0000 C   0  0  0  0  0  0  0  0  0  0  0  0
   19.7355  -17.0241    0.0000 C   0  0  0  0  0  0  0  0  0  0  0  0
   20.9268  -14.9295    0.0000 N   0  0  0  0  0  0  0  0  0  0  0  0
   18.5230  -16.3241    0.0000 C   0  0  0  0  0  0  0  0  0  0  0  0
   17.3106  -17.0241    0.0000 C   0  0  0  0  0  0  0  0  0  0  0  0
   17.3106  -18.4241    0.0000 C   0  0  0  0  0  0  0  0  0  0  0  0
   18.5230  -19.1241    0.0000 C   0  0  0  0  0  0  0  0  0  0  0  0
   19.7355  -18.4241    0.0000 C   0  0  0  0  0  0  0  0  0  0  0  0
   16.0891  -19.1295    0.0000 O   0  0  0  0  0  0  0  0  0  0  0  0
   34.0923  -18.2711    0.0000 O   0  0  0  0  0  0  0  0  0  0  0  0
   34.0923  -18.2711    0.0000 O   0  0  0  0  0  0  0  0  0  0  0  0
   34.0923  -18.2711    0.0000 O   0  0  0  0  0  0  0  0  0  0  0  0
   25.2700  -16.8000    0.0000 C   0  0  0  0  0  0  0  0  0  0  0  0
   25.2700  -18.2000    0.0000 C   0  0  0  0  0  0  0  0  0  0  0  0
   26.6700  -18.2000    0.0000 N   0  0  0  0  0  0  0  0  0  0  0  0
   26.6700  -16.8000    0.0000 C   0  0  0  0  0  0  0  0  0  0  0  0
   28.0000  -18.6200    0.0000 C   0  0  0  0  0  0  0  0  0  0  0  0
   28.8400  -17.5000    0.0000 C   0  0  0  0  0  0  0  0  0  0  0  0
   28.0000  -16.3800    0.0000 S   0  0  0  0  0  0  0  0  0  0  0  0
   29.8200  -18.4800    0.0000 C   0  0  0  0  0  0  0  0  0  0  0  0
   29.8200  -16.5200    0.0000 C   0  0  0  0  0  0  0  0  0  0  0  0
   28.4900  -20.0200    0.0000 C   0  0  0  0  0  0  0  0  0  0  0  0
   29.8900  -20.0200    0.0000 O   0  0  0  0  0  0  0  0  0  0  0  0
   27.6500  -21.1400    0.0000 O   0  0  0  0  0  0  0  0  0  0  0  0
   24.0800  -16.1000    0.0000 N   0  0  0  0  0  0  0  0  0  0  0  0
   22.8900  -16.8000    0.0000 C   0  0  0  0  0  0  0  0  0  0  0  0
   24.0800  -18.9000    0.0000 O   0  0  0  0  0  0  0  0  0  0  0  0
   22.8900  -18.2000    0.0000 O   0  0  0  0  0  0  0  0  0  0  0  0
   21.6300  -16.1000    0.0000 C   0  0  0  0  0  0  0  0  0  0  0  0
   20.4400  -16.8000    0.0000 C   0  0  0  0  0  0  0  0  0  0  0  0
   21.6300  -14.7000    0.0000 N   0  0  0  0  0  0  0  0  0  0  0  0
   19.2500  -16.1000    0.0000 C   0  0  0  0  0  0  0  0  0  0  0  0
   17.9900  -16.8000    0.0000 C   0  0  0  0  0  0  0  0  0  0  0  0
   17.9900  -18.2000    0.0000 C   0  0  0  0  0  0  0  0  0  0  0  0
   19.2500  -18.9000    0.0000 C   0  0  0  0  0  0  0  0  0  0  0  0
   20.4400  -18.2000    0.0000 C   0  0  0  0  0  0  0  0  0  0  0  0
   16.8000  -18.9000    0.0000 O   0  0  0  0  0  0  0  0  0  0  0  0
   22.2483  -16.2228    0.0000 N   0  0  0  0  0  0  0  0  0  0  0  0
   21.8345  -17.4879    0.0000 C   0  0  0  0  0  0  0  0  0  0  0  0
   21.1640  -15.4301    0.0000 C   0  0  0  0  0  0  0  0  0  0  0  0
   23.3153  -15.5992    0.0000 C   0  0  0  0  0  0  0  0  0  0  0  0
   20.5053  -17.4879    0.0000 C   0  0  0  0  0  0  0  0  0  0  0  0
   22.6157  -18.5665    0.0000 N   0  0  0  0  0  0  0  0  0  0  0  0
   20.0855  -16.2228    0.0000 N   0  0  0  0  0  0  0  0  0  0  0  0
   21.1640  -14.1009    0.0000 C   0  0  0  0  0  0  0  0  0  0  0  0
   24.3995  -16.2812    0.0000 C   0  0  0  0  0  0  0  0  0  0  0  0
   23.7875  -19.7150    0.0000 O   0  0  0  0  0  0  0  0  0  0  0  0
   21.1582  -19.7207    0.0000 O   0  0  0  0  0  0  0  0  0  0  0  0
   25.6763  -15.5992    0.0000 O   0  0  0  0  0  0  0  0  0  0  0  0
  1  2  2  0
  2  3  1  0
  3  4  2  0
  4  5  1  0
  5  6  2  0
  1  6  1  0
  4  7  1  0
  7  8  2  0
  8  9  1  0
  5  9  1  0
  8 10  1  0
 10 11  1  0
 10 12  2  0
 11 13  1  0
 13 14  2  0
 14 15  1  0
 15 16  2  0
 16 17  1  0
 17 18  2  0
 13 18  1  0
 14 19  1  0
 15 20  1  0
 20 21  1  0
 21 22  1  0
 22 23  1  0
 22 24  1  0
 22 25  1  0
 26 27  1  0
 27 28  1  0
 28 29  1  0
 26 29  1  0
 28 30  1  0
 30 31  1  0
 31 32  1  0
 29 32  1  1
 31 33  1  0
 31 34  1  0
 30 35  1  6
 35 36  1  0
 35 37  2  0
 26 38  1  1
 38 39  1  0
 27 40  2  0
 39 41  2  0
 39 42  1  0
 42 43  1  0
 42 44  1  1
 43 45  2  0
 45 46  1  0
 46 47  2  0
 47 48  1  0
 48 49  2  0
 43 49  1  0
 47 50  1  0
 54 55  1  0
 55 56  1  0
 56 57  1  0
 54 57  1  0
 56 58  1  0
 58 59  1  0
 59 60  1  0
 57 60  1  1
 59 61  1  0
 59 62  1  0
 58 63  1  6
 63 64  1  0
 63 65  2  0
 54 66  1  1
 66 67  1  0
 55 68  2  0
 67 69  2  0
 67 70  1  0
 70 71  1  0
 70 72  1  1
 71 73  2  0
 73 74  1  0
 74 75  2  0
 75 76  1  0
 76 77  2  0
 71 77  1  0
 75 78  1  0
 79 80  1  0
 79 81  1  0
 79 82  1  0
 80 83  2  0
 80 84  1  0
 81 85  2  0
 81 86  1  0
 82 87  1  0
 84 88  2  0
 84 89  1  0
 87 90  1  0
 83 85  1  0
M  CHG  2  84   1  89  -1
M  END
