4619
     RDKit          2D

 24 24  0  0  0  0  0  0  0  0999 V2000
    4.3660   -0.7500    0.0000 O   0  0  0  0  0  0  0  0  0  0  0  0
    2.6340   -0.7500    0.0000 O   0  0  0  0  0  0  0  0  0  0  0  0
    5.2320    1.7500    0.0000 O   0  0  0  0  0  0  0  0  0  0  0  0
    6.9641    3.7500    0.0000 N   0  0  0  0  0  0  0  0  0  0  0  0
    3.5000   -2.2500    0.0000 C   0  0  0  0  0  0  0  0  0  0  0  0
    4.5000   -2.2500    0.0000 C   0  0  0  0  0  0  0  0  0  0  0  0
    2.5000   -2.2500    0.0000 C   0  0  0  0  0  0  0  0  0  0  0  0
    3.5000   -3.2500    0.0000 C   0  0  0  0  0  0  0  0  0  0  0  0
    3.5000   -1.2500    0.0000 C   0  0  0  0  0  0  0  0  0  0  0  0
    5.0000   -1.3840    0.0000 C   0  0  0  0  0  0  0  0  0  0  0  0
    2.0000   -1.3840    0.0000 C   0  0  0  0  0  0  0  0  0  0  0  0
    4.3660   -3.7500    0.0000 C   0  0  0  0  0  0  0  0  0  0  0  0
    2.6340   -3.7500    0.0000 C   0  0  0  0  0  0  0  0  0  0  0  0
    4.3660    0.2500    0.0000 C   0  0  0  0  0  0  0  0  0  0  0  0
    4.3660   -4.7500    0.0000 C   0  0  0  0  0  0  0  0  0  0  0  0
    2.6340   -4.7500    0.0000 C   0  0  0  0  0  0  0  0  0  0  0  0
    6.0981    3.2500    0.0000 C   0  0  0  0  0  0  0  0  0  0  0  0
    5.2320    0.7500    0.0000 C   0  0  0  0  0  0  0  0  0  0  0  0
    6.0981    2.2500    0.0000 C   0  0  0  0  0  0  0  0  0  0  0  0
    3.5000   -5.2500    0.0000 C   0  0  0  0  0  0  0  0  0  0  0  0
    6.9641    4.7500    0.0000 C   0  0  0  0  0  0  0  0  0  0  0  0
    7.8301    3.2500    0.0000 C   0  0  0  0  0  0  0  0  0  0  0  0
    7.8301    5.2500    0.0000 C   0  0  0  0  0  0  0  0  0  0  0  0
    8.6962    3.7500    0.0000 C   0  0  0  0  0  0  0  0  0  0  0  0
  1  9  1  0
  1 14  1  0
  2  9  2  0
  3 18  1  0
  3 19  1  0
  4 17  1  0
  4 21  1  0
  4 22  1  0
  5  6  1  0
  5  7  1  0
  5  8  1  0
  5  9  1  0
  6 10  1  0
  7 11  1  0
  8 12  2  0
  8 13  1  0
 12 15  1  0
 13 16  2  0
 14 18  1  0
 15 20  2  0
 16 20  1  0
 17 19  1  0
 21 23  1  0
 22 24  1  0
M  END
