 
     RDKit          2D

 64 65  0  0  1  0  0  0  0  0999 V2000
   19.2500  -20.4400    0.0000 C   0  0  0  0  0  0  0  0  0  0  0  0
   19.2500  -21.8400    0.0000 C   0  0  0  0  0  0  0  0  0  0  0  0
   17.8500  -20.0200    0.0000 C   0  0  0  0  0  0  0  0  0  0  0  0
   20.4400  -19.7400    0.0000 C   0  0  0  0  0  0  0  0  0  0  0  0
   17.9200  -22.2600    0.0000 C   0  0  0  0  0  0  0  0  0  0  0  0
   20.4400  -22.5400    0.0000 C   0  0  0  0  0  0  0  0  0  0  0  0
   17.0800  -21.1400    0.0000 C   0  0  0  0  0  0  0  0  0  0  0  0
   21.6300  -20.4400    0.0000 C   0  0  0  0  0  0  0  0  0  0  0  0
   17.5000  -23.6600    0.0000 O   0  0  0  0  0  0  0  0  0  0  0  0
   21.6300  -21.8400    0.0000 C   0  0  0  0  0  0  0  0  0  0  0  0
   22.8900  -22.5400    0.0000 C   0  0  0  0  0  0  0  0  0  0  0  0
   24.0800  -21.8400    0.0000 C   0  0  0  0  0  0  0  0  0  0  0  0
   22.8900  -23.9400    0.0000 O   0  0  0  0  0  0  0  0  0  0  0  0
   25.3400  -22.5400    0.0000 O   0  0  0  0  0  0  0  0  0  0  0  0
   25.3400  -23.9400    0.0000 C   0  0  0  0  0  0  0  0  0  0  0  0
   26.5300  -24.6400    0.0000 C   0  0  0  0  0  0  0  0  0  0  0  0
   26.5300  -26.0400    0.0000 C   0  0  0  0  0  0  0  0  0  0  0  0
   25.3400  -26.7400    0.0000 C   0  0  0  0  0  0  0  0  0  0  0  0
   24.0800  -26.0400    0.0000 C   0  0  0  0  0  0  0  0  0  0  0  0
   24.0800  -24.6400    0.0000 C   0  0  0  0  0  0  0  0  0  0  0  0
   17.3600  -18.6900    0.0000 O   0  0  0  0  0  0  0  0  0  0  0  0
   23.0300  -20.4400    0.0000 C   0  0  0  0  0  0  0  0  0  0  0  0
   24.2200  -19.7400    0.0000 C   0  0  0  0  0  0  0  0  0  0  0  0
   25.4100  -20.4400    0.0000 C   0  0  0  0  0  0  0  0  0  0  0  0
   26.6000  -19.7400    0.0000 C   0  0  0  0  0  0  0  0  0  0  0  0
   27.7900  -20.4400    0.0000 C   0  0  0  0  0  0  0  0  0  0  0  0
   28.9800  -19.7400    0.0000 O   0  0  0  0  0  0  0  0  0  0  0  0
   30.1700  -20.4400    0.0000 C   0  0  0  0  0  0  0  0  0  0  0  0
   31.3600  -19.7400    0.0000 C   0  0  0  0  0  0  0  0  0  0  0  0
   27.7900  -21.8400    0.0000 O   0  0  0  0  0  0  0  0  0  0  0  0
   30.1700  -21.8400    0.0000 C   0  0  0  0  0  0  0  0  0  0  0  0
   27.7453  -26.7351    0.0000 C   0  0  0  0  0  0  0  0  0  0  0  0
   28.9337  -26.0423    0.0000 F   0  0  0  0  0  0  0  0  0  0  0  0
   27.7511  -28.1397    0.0000 F   0  0  0  0  0  0  0  0  0  0  0  0
   28.9435  -27.4205    0.0000 F   0  0  0  0  0  0  0  0  0  0  0  0
   27.1995  -15.4829    0.0000 C   0  0  0  0  0  0  0  0  0  0  0  0
   25.5020  -15.4829    0.0000 C   0  0  0  0  0  0  0  0  0  0  0  0
   27.8361  -16.6145    0.0000 C   0  0  0  0  0  0  0  0  0  0  0  0
   24.8653  -16.6852    0.0000 C   0  0  0  0  0  0  0  0  0  0  0  0
   27.1995  -17.8170    0.0000 O   0  0  0  0  0  0  0  0  0  0  0  0
   29.2508  -16.6145    0.0000 O   0  0  0  0  0  0  0  0  0  0  0  0
   23.4508  -16.6852    0.0000 O   0  0  0  0  0  0  0  0  0  0  0  0
   25.5020  -17.8170    0.0000 O   0  0  0  0  0  0  0  0  0  0  0  0
   14.1400  -15.9600    0.0000 C   0  0  0  0  0  0  0  0  0  0  0  0
   15.3300  -16.6600    0.0000 C   0  0  0  0  0  0  0  0  0  0  0  0
   12.9500  -16.6600    0.0000 O   0  0  0  0  0  0  0  0  0  0  0  0
   16.5200  -15.9600    0.0000 C   0  0  0  0  0  0  0  0  0  0  0  0
   17.7100  -16.6600    0.0000 N   0  0  0  0  0  0  0  0  0  0  0  0
   18.9000  -15.9600    0.0000 C   0  0  0  0  0  0  0  0  0  0  0  0
   20.1600  -16.6600    0.0000 C   0  0  0  0  0  0  0  0  0  0  0  0
   18.9000  -14.5600    0.0000 C   0  0  0  0  0  0  0  0  0  0  0  0
   20.1600  -15.2600    0.0000 C   0  0  0  0  0  0  0  0  0  0  0  0
   15.3300  -18.0600    0.0000 O   0  0  0  0  0  0  0  0  0  0  0  0
   12.9500  -18.0600    0.0000 C   0  0  0  0  0  0  0  0  0  0  0  0
   11.8300  -18.9700    0.0000 C   0  0  0  0  0  0  0  0  0  0  0  0
   12.2500  -20.2300    0.0000 N   0  0  0  0  0  0  0  0  0  0  0  0
   13.6500  -20.2300    0.0000 S   0  0  0  0  0  0  0  0  0  0  0  0
   14.0700  -18.9700    0.0000 N   0  0  0  0  0  0  0  0  0  0  0  0
    8.1200  -16.8000    0.0000 O   0  0  0  0  0  0  0  0  0  0  0  0
    8.1200  -18.2700    0.0000 C   0  0  0  0  0  0  0  0  0  0  0  0
    9.3100  -18.9700    0.0000 C   0  0  0  0  0  0  0  0  0  0  0  0
   10.5700  -18.2700    0.0000 N   0  0  0  0  0  0  0  0  0  0  0  0
   10.5700  -16.8000    0.0000 C   0  0  0  0  0  0  0  0  0  0  0  0
    9.3100  -16.1000    0.0000 C   0  0  0  0  0  0  0  0  0  0  0  0
 12 14  1  0
  5  7  1  0
 14 15  1  0
  1  2  1  0
  1  3  1  0
  1  4  1  6
  2  5  1  0
  2  6  1  1
 15 16  2  0
 16 17  1  0
 17 18  2  0
 18 19  1  0
 19 20  2  0
 20 15  1  0
  3  7  1  0
  4  8  1  0
  5  9  1  6
  6 10  2  0
 10 11  1  0
 11 12  1  0
 11 13  1  6
  3 21  1  6
  8 22  2  0
 23 24  1  0
 23 22  1  0
 24 25  1  0
 25 26  1  0
 26 27  1  0
 27 28  1  0
 28 29  1  0
 26 30  2  0
 28 31  1  0
 17 32  1  0
 32 33  1  0
 32 34  1  0
 32 35  1  0
 36 37  2  0
 36 38  1  0
 37 39  1  0
 38 40  1  0
 38 41  2  0
 39 42  1  0
 39 43  2  0
 44 45  1  0
 44 46  1  0
 45 47  1  0
 47 48  1  0
 48 49  1  0
 49 50  1  0
 49 51  1  0
 49 52  1  0
 45 53  1  6
 46 54  1  0
 54 55  1  0
 55 56  2  0
 56 57  1  0
 57 58  1  0
 54 58  2  0
 59 60  1  0
 60 61  1  0
 61 62  1  0
 62 63  1  0
 63 64  1  0
 59 64  1  0
 62 55  1  0
M  END
