 
     RDKit          2D

 85 90  0  0  0  0  0  0  0  0999 V2000
   36.4918  -16.3605    0.0000 C   0  0  0  0  0  0  0  0  0  0  0  0
   35.2747  -15.6584    0.0000 C   0  0  0  0  0  0  0  0  0  0  0  0
   36.5002  -17.7636    0.0000 C   0  0  0  0  0  0  0  0  0  0  0  0
   37.8328  -15.9323    0.0000 S   0  0  0  0  0  0  0  0  0  0  0  0
   34.0636  -16.3605    0.0000 C   0  0  0  0  0  0  0  0  0  0  0  0
   37.8315  -18.1968    0.0000 N   0  0  0  0  0  0  0  0  0  0  0  0
   35.3724  -18.5929    0.0000 O   0  0  0  0  0  0  0  0  0  0  0  0
   38.6556  -17.0654    0.0000 C   0  0  0  0  0  0  0  0  0  0  0  0
   32.8527  -15.6584    0.0000 C   0  0  0  0  0  0  0  0  0  0  0  0
   34.0636  -17.7589    0.0000 C   0  0  0  0  0  0  0  0  0  0  0  0
   40.0558  -17.0643    0.0000 O   0  0  0  0  0  0  0  0  0  0  0  0
   31.6415  -16.3605    0.0000 C   0  0  0  0  0  0  0  0  0  0  0  0
   32.8527  -18.4610    0.0000 C   0  0  0  0  0  0  0  0  0  0  0  0
   31.6415  -17.7589    0.0000 C   0  0  0  0  0  0  0  0  0  0  0  0
   30.4304  -18.4610    0.0000 O   0  0  0  0  0  0  0  0  0  0  0  0
   29.2134  -17.7589    0.0000 C   0  0  0  0  0  0  0  0  0  0  0  0
   28.0023  -18.4610    0.0000 C   0  0  0  0  0  0  0  0  0  0  0  0
   26.7911  -17.7589    0.0000 C   0  0  0  0  0  0  0  0  0  0  0  0
   26.7911  -16.3664    0.0000 C   0  0  0  0  0  0  0  0  0  0  0  0
   25.5800  -18.4668    0.0000 N   0  0  0  0  0  0  0  0  0  0  0  0
   25.5800  -15.6701    0.0000 C   0  0  0  0  0  0  0  0  0  0  0  0
   24.3689  -17.7647    0.0000 C   0  0  0  0  0  0  0  0  0  0  0  0
   24.3689  -16.3664    0.0000 C   0  0  0  0  0  0  0  0  0  0  0  0
   23.1580  -15.6701    0.0000 C   0  0  0  0  0  0  0  0  0  0  0  0
   21.9409  -16.3664    0.0000 C   0  0  0  0  0  0  0  0  0  0  0  0
   42.2119  -18.3454    0.0000 Cl  0  0  0  0  0  0  0  0  0  0  0  0
   32.9700  -20.3700    0.0000 C   0  0  0  0  0  0  0  0  0  0  0  0
   31.7800  -19.6700    0.0000 C   0  0  0  0  0  0  0  0  0  0  0  0
   30.5900  -20.3700    0.0000 C   0  0  0  0  0  0  0  0  0  0  0  0
   29.3300  -19.6700    0.0000 C   0  0  0  0  0  0  0  0  0  0  0  0
   30.5900  -21.7700    0.0000 C   0  0  0  0  0  0  0  0  0  0  0  0
   28.1400  -20.3700    0.0000 C   0  0  0  0  0  0  0  0  0  0  0  0
   29.3300  -22.4700    0.0000 C   0  0  0  0  0  0  0  0  0  0  0  0
   28.1400  -21.7700    0.0000 C   0  0  0  0  0  0  0  0  0  0  0  0
   26.9500  -22.4700    0.0000 O   0  0  0  0  0  0  0  0  0  0  0  0
   25.6900  -21.7700    0.0000 C   0  0  0  0  0  0  0  0  0  0  0  0
   24.5700  -22.4700    0.0000 C   0  0  0  0  0  0  0  0  0  0  0  0
   23.3800  -21.7700    0.0000 C   0  0  0  0  0  0  0  0  0  0  0  0
   23.3800  -20.3700    0.0000 C   0  0  0  0  0  0  0  0  0  0  0  0
   22.1900  -22.4700    0.0000 N   0  0  0  0  0  0  0  0  0  0  0  0
   22.1900  -19.6700    0.0000 C   0  0  0  0  0  0  0  0  0  0  0  0
   20.9300  -21.7700    0.0000 C   0  0  0  0  0  0  0  0  0  0  0  0
   20.9300  -20.3700    0.0000 C   0  0  0  0  0  0  0  0  0  0  0  0
   19.7400  -19.6700    0.0000 C   0  0  0  0  0  0  0  0  0  0  0  0
   18.5500  -20.3700    0.0000 C   0  0  0  0  0  0  0  0  0  0  0  0
   32.9698  -21.7700    0.0000 C   0  0  0  0  0  0  0  0  0  0  0  0
   34.3013  -22.2028    0.0000 N   0  0  0  0  0  0  0  0  0  0  0  0
   35.1243  -21.0703    0.0000 C   0  0  0  0  0  0  0  0  0  0  0  0
   34.3015  -19.9375    0.0000 S   0  0  0  0  0  0  0  0  0  0  0  0
   36.5400  -21.0704    0.0000 O   0  0  0  0  0  0  0  0  0  0  0  0
   31.8372  -22.5927    0.0000 O   0  0  0  0  0  0  0  0  0  0  0  0
   11.7600  -17.3600    0.0000 N   0  0  0  0  0  0  0  0  0  0  0  0
   10.5700  -16.5900    0.0000 C   0  0  0  0  0  0  0  0  0  0  0  0
   11.3400  -18.7600    0.0000 C   0  0  0  0  0  0  0  0  0  0  0  0
   12.9500  -16.6600    0.0000 C   0  0  0  0  0  0  0  0  0  0  0  0
    9.4500  -17.4300    0.0000 C   0  0  0  0  0  0  0  0  0  0  0  0
   10.5700  -15.2600    0.0000 O   0  0  0  0  0  0  0  0  0  0  0  0
    9.8700  -18.7600    0.0000 C   0  0  0  0  0  0  0  0  0  0  0  0
   14.2100  -17.4300    0.0000 N   0  0  0  0  0  0  0  0  0  0  0  0
   12.9500  -15.2600    0.0000 O   0  0  0  0  0  0  0  0  0  0  0  0
    8.3300  -16.8000    0.0000 C   0  0  0  0  0  0  0  0  0  0  0  0
    9.1000  -19.8800    0.0000 C   0  0  0  0  0  0  0  0  0  0  0  0
   15.4000  -16.7300    0.0000 C   0  0  0  0  0  0  0  0  0  0  0  0
    7.2800  -17.4300    0.0000 C   0  0  0  0  0  0  0  0  0  0  0  0
   16.5900  -17.4300    0.0000 C   0  0  0  0  0  0  0  0  0  0  0  0
   17.8500  -16.7300    0.0000 C   0  0  0  0  0  0  0  0  0  0  0  0
   17.8500  -15.2600    0.0000 C   0  0  0  0  0  0  0  0  0  0  0  0
   19.0400  -17.4300    0.0000 C   0  0  0  0  0  0  0  0  0  0  0  0
   19.0400  -14.5600    0.0000 C   0  0  0  0  0  0  0  0  0  0  0  0
   20.3000  -16.7300    0.0000 C   0  0  0  0  0  0  0  0  0  0  0  0
   20.3000  -15.2600    0.0000 C   0  0  0  0  0  0  0  0  0  0  0  0
   21.4900  -14.5600    0.0000 S   0  0  0  0  0  0  0  0  0  0  0  0
   22.7500  -15.2600    0.0000 N   0  0  0  0  0  0  0  0  0  0  0  0
   23.9400  -14.5600    0.0000 C   0  0  0  0  0  0  0  0  0  0  0  0
   25.1300  -15.2600    0.0000 N   0  0  0  0  0  0  0  0  0  0  0  0
   23.9400  -13.1600    0.0000 O   0  0  0  0  0  0  0  0  0  0  0  0
   26.3900  -14.5600    0.0000 C   0  0  0  0  0  0  0  0  0  0  0  0
   26.3900  -13.1600    0.0000 C   0  0  0  0  0  0  0  0  0  0  0  0
   27.5800  -15.2600    0.0000 C   0  0  0  0  0  0  0  0  0  0  0  0
   27.5800  -12.4600    0.0000 C   0  0  0  0  0  0  0  0  0  0  0  0
   28.8400  -14.5600    0.0000 C   0  0  0  0  0  0  0  0  0  0  0  0
   28.8400  -13.1600    0.0000 C   0  0  0  0  0  0  0  0  0  0  0  0
   30.0300  -12.4600    0.0000 C   0  0  0  0  0  0  0  0  0  0  0  0
   22.1900  -13.3476    0.0000 O   0  0  0  0  0  0  0  0  0  0  0  0
   20.7900  -13.3476    0.0000 O   0  0  0  0  0  0  0  0  0  0  0  0
  1  2  1  0
  1  3  1  0
  1  4  1  0
  2  5  1  0
  3  6  1  0
  3  7  2  0
  4  8  1  0
  5  9  2  0
  5 10  1  0
  8 11  2  0
  9 12  1  0
 10 13  2  0
 12 14  2  0
 14 15  1  0
 15 16  1  0
 16 17  1  0
 17 18  1  0
 18 19  2  0
 18 20  1  0
 19 21  1  0
 20 22  2  0
 21 23  2  0
 23 24  1  0
 24 25  1  0
  6  8  1  0
 13 14  1  0
 22 23  1  0
 27 28  1  0
 28 29  1  0
 29 30  2  0
 29 31  1  0
 30 32  1  0
 31 33  2  0
 32 34  2  0
 34 35  1  0
 35 36  1  0
 36 37  1  0
 37 38  1  0
 38 39  2  0
 38 40  1  0
 39 41  1  0
 40 42  2  0
 41 43  2  0
 43 44  1  0
 44 45  1  0
 33 34  1  0
 42 43  1  0
 27 46  1  0
 46 47  1  0
 47 48  1  0
 48 49  1  0
 27 49  1  0
 48 50  2  0
 46 51  2  0
 52 53  1  0
 52 54  1  0
 52 55  1  0
 53 56  1  0
 53 57  2  0
 54 58  1  0
 55 59  1  0
 55 60  2  0
 56 61  1  0
 58 62  1  0
 59 63  1  0
 61 64  1  0
 63 65  1  0
 65 66  1  0
 66 67  2  0
 66 68  1  0
 67 69  1  0
 68 70  2  0
 69 71  2  0
 71 72  1  0
 72 73  1  0
 73 74  1  0
 74 75  1  0
 74 76  2  0
 75 77  1  0
 77 78  1  0
 77 79  1  0
 78 80  1  0
 79 81  1  0
 80 82  1  0
 82 83  1  0
 56 58  2  0
 70 71  1  0
 81 82  1  0
 72 84  2  0
 72 85  2  0
M  END
