 
 
 
 33 36  0  0  0  0  0  0  0  0999 V2000
   17.0832  -13.4464    0.0000 C   0  0  0  0  0  0  0  0  0  0  0  0
   17.0832  -14.8467    0.0000 C   0  0  0  0  0  0  0  0  0  0  0  0
   15.8930  -15.5469    0.0000 C   0  0  0  0  0  0  0  0  0  0  0  0
   14.7027  -14.8467    0.0000 C   0  0  0  0  0  0  0  0  0  0  0  0
   14.7027  -13.4464    0.0000 C   0  0  0  0  0  0  0  0  0  0  0  0
   15.8930  -12.7463    0.0000 C   0  0  0  0  0  0  0  0  0  0  0  0
   13.4424  -15.5469    0.0000 C   0  0  0  0  0  0  0  0  0  0  0  0
   12.2522  -14.8467    0.0000 N   0  0  0  0  0  0  0  0  0  0  0  0
   12.2522  -13.4464    0.0000 C   0  0  0  0  0  0  0  0  0  0  0  0
   13.4424  -12.7463    0.0000 N   0  0  0  0  0  0  0  0  0  0  0  0
   18.3435  -15.5469    0.0000 N   0  0  0  0  0  0  0  0  0  0  0  0
   18.3435  -12.7463    0.0000 O   0  0  0  0  0  0  0  0  0  0  0  0
   13.4424  -16.9472    0.0000 N   0  0  0  0  0  0  0  0  0  0  0  0
   18.3293  -11.3400    0.0000 C   0  0  0  0  0  0  0  0  0  0  0  0
   19.5505  -14.8367    0.0000 C   0  0  0  0  0  0  0  0  0  0  0  0
   20.7545  -15.5188    0.0000 C   0  0  0  0  0  0  0  0  0  0  0  0
   19.5390  -13.4400    0.0000 O   0  0  0  0  0  0  0  0  0  0  0  0
   21.9263  -14.8294    0.0000 C   0  0  0  0  0  0  0  0  0  0  0  0
   23.1364  -15.5152    0.0000 C   0  0  0  0  0  0  0  0  0  0  0  0
   24.3566  -14.7971    0.0000 N   0  0  0  0  0  0  0  0  0  0  0  0
   25.5657  -15.4815    0.0000 C   0  0  0  0  0  0  0  0  0  0  0  0
   26.7722  -14.7712    0.0000 C   0  0  0  0  0  0  0  0  0  0  0  0
   26.7603  -13.3713    0.0000 C   0  0  0  0  0  0  0  0  0  0  0  0
   25.5512  -12.6868    0.0000 C   0  0  0  0  0  0  0  0  0  0  0  0
   24.3447  -13.3971    0.0000 C   0  0  0  0  0  0  0  0  0  0  0  0
   14.6528  -17.6394    0.0000 C   0  0  0  0  0  0  0  0  0  0  0  0
   14.6585  -19.0397    0.0000 C   0  0  0  0  0  0  0  0  0  0  0  0
   15.8738  -19.7348    0.0000 C   0  0  0  0  0  0  0  0  0  0  0  0
   17.0834  -19.0298    0.0000 C   0  0  0  0  0  0  0  0  0  0  0  0
   17.0776  -17.6295    0.0000 C   0  0  0  0  0  0  0  0  0  0  0  0
   15.8624  -16.9344    0.0000 C   0  0  0  0  0  0  0  0  0  0  0  0
   15.8795  -21.1400    0.0000 Cl  0  0  0  0  0  0  0  0  0  0  0  0
   18.3005  -19.7259    0.0000 F   0  0  0  0  0  0  0  0  0  0  0  0
  1  2  1  0     0  0
  2  3  2  0     0  0
  3  4  1  0     0  0
  4  5  2  0     0  0
  5  6  1  0     0  0
  1  6  2  0     0  0
  4  7  1  0     0  0
  7  8  2  0     0  0
  8  9  1  0     0  0
  9 10  2  0     0  0
  5 10  1  0     0  0
  2 11  1  0     0  0
  1 12  1  0     0  0
  7 13  1  0     0  0
 12 14  1  0     0  0
 11 15  1  0     0  0
 15 16  1  0     0  0
 15 17  2  0     0  0
 16 18  2  0     0  0
 18 19  1  0     0  0
 19 20  1  0     0  0
 20 21  1  0     0  0
 21 22  1  0     0  0
 22 23  1  0     0  0
 23 24  1  0     0  0
 24 25  1  0     0  0
 20 25  1  0     0  0
 13 26  1  0     0  0
 26 27  2  0     0  0
 27 28  1  0     0  0
 28 29  2  0     0  0
 29 30  1  0     0  0
 30 31  2  0     0  0
 26 31  1  0     0  0
 28 32  1  0     0  0
 29 33  1  0     0  0
M  END
