 
     RDKit          2D

218230  0  0  0  0  0  0  0  0999 V2000
    3.4300  -16.7300    0.0000 C   0  0  0  0  0  0  0  0  0  0  0  0
    3.4300  -18.1300    0.0000 C   0  0  0  0  0  0  0  0  0  0  0  0
    4.6424  -18.8300    0.0000 C   0  0  0  0  0  0  0  0  0  0  0  0
    5.8549  -18.1300    0.0000 C   0  0  0  0  0  0  0  0  0  0  0  0
    5.8549  -16.7300    0.0000 C   0  0  0  0  0  0  0  0  0  0  0  0
    4.6424  -16.0300    0.0000 C   0  0  0  0  0  0  0  0  0  0  0  0
    7.0673  -18.8300    0.0000 S   0  0  0  0  0  0  0  0  0  0  0  0
    8.2797  -18.1300    0.0000 C   0  0  0  0  0  0  0  0  0  0  0  0
    8.2797  -16.7300    0.0000 C   0  0  0  0  0  0  0  0  0  0  0  0
    7.0673  -16.0300    0.0000 N   0  0  0  0  0  0  0  0  0  0  0  0
    9.4922  -18.8300    0.0000 C   0  0  0  0  0  0  0  0  0  0  0  0
   10.7046  -18.1300    0.0000 C   0  0  0  0  0  0  0  0  0  0  0  0
   10.7046  -16.7300    0.0000 C   0  0  0  0  0  0  0  0  0  0  0  0
    9.4922  -16.0300    0.0000 C   0  0  0  0  0  0  0  0  0  0  0  0
    7.0673  -14.6300    0.0000 C   0  0  0  0  0  0  0  0  0  0  0  0
    8.2818  -13.9288    0.0000 C   0  0  0  0  0  0  0  0  0  0  0  0
    9.4783  -14.6198    0.0000 C   0  0  0  0  0  0  0  0  0  0  0  0
   10.6651  -13.9346    0.0000 N   0  0  0  0  0  0  0  0  0  0  0  0
   11.8566  -14.6228    0.0000 C   0  0  0  0  0  0  0  0  0  0  0  0
   10.6653  -12.5302    0.0000 C   0  0  0  0  0  0  0  0  0  0  0  0
   11.9211  -16.0277    0.0000 Cl  0  0  0  0  0  0  0  0  0  0  0  0
    0.3572   -2.2399    0.0000 O   0  0  0  0  0  0  0  0  0  0  0  0
    0.3572   -4.7150    0.0000 O   0  0  0  0  0  0  0  0  0  0  0  0
   -1.0717   -3.8900    0.0000 O   0  0  0  0  0  0  0  0  0  0  0  0
    1.7862   -3.8900    0.0000 O   0  0  0  0  0  0  0  0  0  0  0  0
    1.7862   -2.2399    0.0000 O   0  0  0  0  0  0  0  0  0  0  0  0
   -1.0717   -1.4149    0.0000 O   0  0  0  0  0  0  0  0  0  0  0  0
   -1.0717   -4.7150    0.0000 O   0  0  0  0  0  0  0  0  0  0  0  0
   -1.7862   -2.6524    0.0000 O   0  0  0  0  0  0  0  0  0  0  0  0
    2.5007   -2.6524    0.0000 O   0  0  0  0  0  0  0  0  0  0  0  0
    1.0717   -1.0024    0.0000 O   0  0  0  0  0  0  0  0  0  0  0  0
   -2.5008   -1.4149    0.0000 O   0  0  0  0  0  0  0  0  0  0  0  0
   -1.7862   -7.6026    0.0000 O   0  0  0  0  0  0  0  0  0  0  0  0
   -4.6442   -3.4775    0.0000 O   0  0  0  0  0  0  0  0  0  0  0  0
    3.9297   -5.9525    0.0000 O   0  0  0  0  0  0  0  0  0  0  0  0
    1.0717   -7.6026    0.0000 O   0  0  0  0  0  0  0  0  0  0  0  0
   -3.2152   -5.9525    0.0000 O   0  0  0  0  0  0  0  0  0  0  0  0
    5.3586   -3.4775    0.0000 O   0  0  0  0  0  0  0  0  0  0  0  0
    4.6442   -1.4149    0.0000 O   0  0  0  0  0  0  0  0  0  0  0  0
   -0.3573   -8.4276    0.0000 O   0  0  0  0  0  0  0  0  0  0  0  0
   -4.6442   -5.1275    0.0000 O   0  0  0  0  0  0  0  0  0  0  0  0
    3.2151    1.0601    0.0000 O   0  0  0  0  0  0  0  0  0  0  0  0
    5.3586   -5.1275    0.0000 O   0  0  0  0  0  0  0  0  0  0  0  0
    4.6442    0.2351    0.0000 O   0  0  0  0  0  0  0  0  0  0  0  0
   -0.3573    1.4727    0.0000 O   0  0  0  0  0  0  0  0  0  0  0  0
   -3.2152    1.4727    0.0000 O   0  0  0  0  0  0  0  0  0  0  0  0
   -1.7862    2.2977    0.0000 O   0  0  0  0  0  0  0  0  0  0  0  0
   -1.0717   -8.8401    0.0000 O   0  0  0  0  0  0  0  0  0  0  0  0
   -5.3587   -4.7150    0.0000 O   0  0  0  0  0  0  0  0  0  0  0  0
    5.3586   -5.9525    0.0000 O   0  0  0  0  0  0  0  0  0  0  0  0
    5.3586   -0.1774    0.0000 O   0  0  0  0  0  0  0  0  0  0  0  0
   -1.0717    2.7102    0.0000 O   0  0  0  0  0  0  0  0  0  0  0  0
   -3.2152  -10.9026    0.0000 O   0  0  0  0  0  0  0  0  0  0  0  0
   -4.6442   -8.4276    0.0000 O   0  0  0  0  0  0  0  0  0  0  0  0
   -8.2166   -3.8900    0.0000 O   0  0  0  0  0  0  0  0  0  0  0  0
   -6.7876   -1.4149    0.0000 O   0  0  0  0  0  0  0  0  0  0  0  0
    6.0731   -8.8401    0.0000 O   0  0  0  0  0  0  0  0  0  0  0  0
    3.2151   -8.8401    0.0000 O   0  0  0  0  0  0  0  0  0  0  0  0
   -4.6442  -10.0776    0.0000 O   0  0  0  0  0  0  0  0  0  0  0  0
   -8.2166   -2.2399    0.0000 O   0  0  0  0  0  0  0  0  0  0  0  0
    8.2166   -1.0024    0.0000 O   0  0  0  0  0  0  0  0  0  0  0  0
    6.7876   -3.4775    0.0000 O   0  0  0  0  0  0  0  0  0  0  0  0
    4.6442   -9.6651    0.0000 O   0  0  0  0  0  0  0  0  0  0  0  0
    8.2166   -2.6524    0.0000 O   0  0  0  0  0  0  0  0  0  0  0  0
    1.0717    4.7727    0.0000 O   0  0  0  0  0  0  0  0  0  0  0  0
    2.5007    2.2977    0.0000 O   0  0  0  0  0  0  0  0  0  0  0  0
    2.5007    3.9477    0.0000 O   0  0  0  0  0  0  0  0  0  0  0  0
    0.3572   -3.8900    0.0000 C   0  0  0  0  0  0  0  0  0  0  0  0
   -0.3573   -3.4775    0.0000 C   0  0  0  0  0  0  0  0  0  0  0  0
    1.0717   -3.4775    0.0000 C   0  0  0  0  0  0  0  0  0  0  0  0
   -0.3573   -2.6524    0.0000 C   0  0  0  0  0  0  0  0  0  0  0  0
    1.0717   -2.6524    0.0000 C   0  0  0  0  0  0  0  0  0  0  0  0
   -1.0717   -2.2399    0.0000 C   0  0  0  0  0  0  0  0  0  0  0  0
   -0.3573   -5.1275    0.0000 C   0  0  0  0  0  0  0  0  0  0  0  0
   -1.7862   -3.4775    0.0000 C   0  0  0  0  0  0  0  0  0  0  0  0
    2.5007   -3.4775    0.0000 C   0  0  0  0  0  0  0  0  0  0  0  0
    1.7862   -1.4149    0.0000 C   0  0  0  0  0  0  0  0  0  0  0  0
   -0.3573   -5.9525    0.0000 C   0  0  0  0  0  0  0  0  0  0  0  0
   -2.5008   -3.8900    0.0000 C   0  0  0  0  0  0  0  0  0  0  0  0
    3.2151   -3.8900    0.0000 C   0  0  0  0  0  0  0  0  0  0  0  0
   -1.7862   -1.0024    0.0000 C   0  0  0  0  0  0  0  0  0  0  0  0
    2.5007   -1.0024    0.0000 C   0  0  0  0  0  0  0  0  0  0  0  0
   -1.7862   -0.1774    0.0000 C   0  0  0  0  0  0  0  0  0  0  0  0
   -1.0717   -6.3650    0.0000 C   0  0  0  0  0  0  0  0  0  0  0  0
   -3.2152   -3.4775    0.0000 C   0  0  0  0  0  0  0  0  0  0  0  0
    0.3572   -6.3650    0.0000 C   0  0  0  0  0  0  0  0  0  0  0  0
   -2.5008   -4.7150    0.0000 C   0  0  0  0  0  0  0  0  0  0  0  0
    3.2151   -4.7150    0.0000 C   0  0  0  0  0  0  0  0  0  0  0  0
    3.9297   -3.4775    0.0000 C   0  0  0  0  0  0  0  0  0  0  0  0
    3.2151   -1.4149    0.0000 C   0  0  0  0  0  0  0  0  0  0  0  0
    2.5007   -0.1774    0.0000 C   0  0  0  0  0  0  0  0  0  0  0  0
   -1.0717   -7.1900    0.0000 C   0  0  0  0  0  0  0  0  0  0  0  0
   -3.9297   -3.8900    0.0000 C   0  0  0  0  0  0  0  0  0  0  0  0
    0.3572   -7.1900    0.0000 C   0  0  0  0  0  0  0  0  0  0  0  0
   -3.2152   -5.1275    0.0000 C   0  0  0  0  0  0  0  0  0  0  0  0
    3.9297   -5.1275    0.0000 C   0  0  0  0  0  0  0  0  0  0  0  0
    4.6442   -3.8900    0.0000 C   0  0  0  0  0  0  0  0  0  0  0  0
   -1.0717    0.2351    0.0000 C   0  0  0  0  0  0  0  0  0  0  0  0
   -2.5008    0.2351    0.0000 C   0  0  0  0  0  0  0  0  0  0  0  0
   -0.3573   -7.6026    0.0000 C   0  0  0  0  0  0  0  0  0  0  0  0
   -3.9297   -4.7150    0.0000 C   0  0  0  0  0  0  0  0  0  0  0  0
    3.9297   -1.0024    0.0000 C   0  0  0  0  0  0  0  0  0  0  0  0
    3.2151    0.2351    0.0000 C   0  0  0  0  0  0  0  0  0  0  0  0
    4.6442   -4.7150    0.0000 C   0  0  0  0  0  0  0  0  0  0  0  0
    3.9297   -0.1774    0.0000 C   0  0  0  0  0  0  0  0  0  0  0  0
   -1.0717    1.0601    0.0000 C   0  0  0  0  0  0  0  0  0  0  0  0
   -2.5008    1.0601    0.0000 C   0  0  0  0  0  0  0  0  0  0  0  0
   -1.7862    1.4727    0.0000 C   0  0  0  0  0  0  0  0  0  0  0  0
   -1.7862   -8.4276    0.0000 C   0  0  0  0  0  0  0  0  0  0  0  0
   -5.3587   -3.8900    0.0000 C   0  0  0  0  0  0  0  0  0  0  0  0
    4.6442   -6.3650    0.0000 C   0  0  0  0  0  0  0  0  0  0  0  0
    5.3586   -1.0024    0.0000 C   0  0  0  0  0  0  0  0  0  0  0  0
   -2.5008   -8.8401    0.0000 C   0  0  0  0  0  0  0  0  0  0  0  0
   -6.0732   -3.4775    0.0000 C   0  0  0  0  0  0  0  0  0  0  0  0
   -0.3573    2.2977    0.0000 C   0  0  0  0  0  0  0  0  0  0  0  0
    4.6442   -7.1900    0.0000 C   0  0  0  0  0  0  0  0  0  0  0  0
    6.0731   -1.4149    0.0000 C   0  0  0  0  0  0  0  0  0  0  0  0
    0.3572    2.7102    0.0000 C   0  0  0  0  0  0  0  0  0  0  0  0
   -3.2152   -8.4276    0.0000 C   0  0  0  0  0  0  0  0  0  0  0  0
   -2.5008   -9.6651    0.0000 C   0  0  0  0  0  0  0  0  0  0  0  0
   -6.0732   -2.6524    0.0000 C   0  0  0  0  0  0  0  0  0  0  0  0
   -6.7876   -3.8900    0.0000 C   0  0  0  0  0  0  0  0  0  0  0  0
    3.9297   -7.6026    0.0000 C   0  0  0  0  0  0  0  0  0  0  0  0
    5.3586   -7.6026    0.0000 C   0  0  0  0  0  0  0  0  0  0  0  0
    6.0731   -2.2399    0.0000 C   0  0  0  0  0  0  0  0  0  0  0  0
    6.7876   -1.0024    0.0000 C   0  0  0  0  0  0  0  0  0  0  0  0
   -3.2152  -10.0776    0.0000 C   0  0  0  0  0  0  0  0  0  0  0  0
   -3.9297   -8.8401    0.0000 C   0  0  0  0  0  0  0  0  0  0  0  0
   -7.5021   -3.4775    0.0000 C   0  0  0  0  0  0  0  0  0  0  0  0
   -6.7876   -2.2399    0.0000 C   0  0  0  0  0  0  0  0  0  0  0  0
    5.3586   -8.4276    0.0000 C   0  0  0  0  0  0  0  0  0  0  0  0
    3.9297   -8.4276    0.0000 C   0  0  0  0  0  0  0  0  0  0  0  0
    1.0717    2.2977    0.0000 C   0  0  0  0  0  0  0  0  0  0  0  0
    0.3572    3.5352    0.0000 C   0  0  0  0  0  0  0  0  0  0  0  0
   -3.9297   -9.6651    0.0000 C   0  0  0  0  0  0  0  0  0  0  0  0
   -7.5021   -2.6524    0.0000 C   0  0  0  0  0  0  0  0  0  0  0  0
    7.5021   -1.4149    0.0000 C   0  0  0  0  0  0  0  0  0  0  0  0
    6.7876   -2.6524    0.0000 C   0  0  0  0  0  0  0  0  0  0  0  0
    4.6442   -8.8401    0.0000 C   0  0  0  0  0  0  0  0  0  0  0  0
    7.5021   -2.2399    0.0000 C   0  0  0  0  0  0  0  0  0  0  0  0
    1.0717    3.9477    0.0000 C   0  0  0  0  0  0  0  0  0  0  0  0
    1.7862    2.7102    0.0000 C   0  0  0  0  0  0  0  0  0  0  0  0
    1.7862    3.5352    0.0000 C   0  0  0  0  0  0  0  0  0  0  0  0
   -0.0858   -4.1457    0.0000 H   0  0  0  0  0  0  0  0  0  0  0  0
   -0.8002   -3.2217    0.0000 H   0  0  0  0  0  0  0  0  0  0  0  0
    1.5147   -3.2217    0.0000 H   0  0  0  0  0  0  0  0  0  0  0  0
   -0.3573   -2.1409    0.0000 H   0  0  0  0  0  0  0  0  0  0  0  0
    1.0717   -2.1409    0.0000 H   0  0  0  0  0  0  0  0  0  0  0  0
   -1.5755   -2.1511    0.0000 H   0  0  0  0  0  0  0  0  0  0  0  0
   -1.2467   -2.7206    0.0000 H   0  0  0  0  0  0  0  0  0  0  0  0
   -1.5148   -6.1093    0.0000 H   0  0  0  0  0  0  0  0  0  0  0  0
   -3.2152   -2.9659    0.0000 H   0  0  0  0  0  0  0  0  0  0  0  0
    0.8002   -6.1093    0.0000 H   0  0  0  0  0  0  0  0  0  0  0  0
   -2.0577   -4.9707    0.0000 H   0  0  0  0  0  0  0  0  0  0  0  0
    2.7722   -4.9707    0.0000 H   0  0  0  0  0  0  0  0  0  0  0  0
    3.9297   -2.9659    0.0000 H   0  0  0  0  0  0  0  0  0  0  0  0
    3.2151   -1.9264    0.0000 H   0  0  0  0  0  0  0  0  0  0  0  0
    2.0577    0.0784    0.0000 H   0  0  0  0  0  0  0  0  0  0  0  0
   -0.6288   -0.0206    0.0000 H   0  0  0  0  0  0  0  0  0  0  0  0
   -2.9437   -0.0206    0.0000 H   0  0  0  0  0  0  0  0  0  0  0  0
    1.5147   -7.3468    0.0000 H   0  0  0  0  0  0  0  0  0  0  0  0
   -3.6582   -6.2083    0.0000 H   0  0  0  0  0  0  0  0  0  0  0  0
    5.8017   -3.7332    0.0000 H   0  0  0  0  0  0  0  0  0  0  0  0
    0.0858   -8.6833    0.0000 H   0  0  0  0  0  0  0  0  0  0  0  0
   -4.6442   -5.6390    0.0000 H   0  0  0  0  0  0  0  0  0  0  0  0
    2.7722    1.3159    0.0000 H   0  0  0  0  0  0  0  0  0  0  0  0
    5.8017   -4.8717    0.0000 H   0  0  0  0  0  0  0  0  0  0  0  0
    4.6442    0.7466    0.0000 H   0  0  0  0  0  0  0  0  0  0  0  0
   -3.6582    1.2169    0.0000 H   0  0  0  0  0  0  0  0  0  0  0  0
   -2.2292    2.5534    0.0000 H   0  0  0  0  0  0  0  0  0  0  0  0
   -3.2152   -7.9160    0.0000 H   0  0  0  0  0  0  0  0  0  0  0  0
   -2.0577   -9.9208    0.0000 H   0  0  0  0  0  0  0  0  0  0  0  0
   -5.6301   -2.3967    0.0000 H   0  0  0  0  0  0  0  0  0  0  0  0
   -6.7876   -4.4015    0.0000 H   0  0  0  0  0  0  0  0  0  0  0  0
    3.4866   -7.3468    0.0000 H   0  0  0  0  0  0  0  0  0  0  0  0
    5.8017   -7.3468    0.0000 H   0  0  0  0  0  0  0  0  0  0  0  0
    5.6301   -2.4957    0.0000 H   0  0  0  0  0  0  0  0  0  0  0  0
    6.7876   -0.4909    0.0000 H   0  0  0  0  0  0  0  0  0  0  0  0
    1.0717    1.7862    0.0000 H   0  0  0  0  0  0  0  0  0  0  0  0
   -0.0858    3.7910    0.0000 H   0  0  0  0  0  0  0  0  0  0  0  0
   -2.7723  -11.1584    0.0000 H   0  0  0  0  0  0  0  0  0  0  0  0
   -5.0872   -8.6833    0.0000 H   0  0  0  0  0  0  0  0  0  0  0  0
   -8.2166   -4.4015    0.0000 H   0  0  0  0  0  0  0  0  0  0  0  0
   -7.2307   -1.1592    0.0000 H   0  0  0  0  0  0  0  0  0  0  0  0
    6.5161   -8.5843    0.0000 H   0  0  0  0  0  0  0  0  0  0  0  0
    3.2151   -9.3516    0.0000 H   0  0  0  0  0  0  0  0  0  0  0  0
   -4.6442  -10.5891    0.0000 H   0  0  0  0  0  0  0  0  0  0  0  0
   -8.6596   -2.4957    0.0000 H   0  0  0  0  0  0  0  0  0  0  0  0
    8.2166   -0.4909    0.0000 H   0  0  0  0  0  0  0  0  0  0  0  0
    7.2306   -3.7332    0.0000 H   0  0  0  0  0  0  0  0  0  0  0  0
    5.0871   -9.9208    0.0000 H   0  0  0  0  0  0  0  0  0  0  0  0
    8.6596   -2.3967    0.0000 H   0  0  0  0  0  0  0  0  0  0  0  0
    0.6287    5.0285    0.0000 H   0  0  0  0  0  0  0  0  0  0  0  0
    2.9437    2.5534    0.0000 H   0  0  0  0  0  0  0  0  0  0  0  0
    2.5007    4.4592    0.0000 H   0  0  0  0  0  0  0  0  0  0  0  0
    0.3572   10.9026    0.0000 N   0  0  0  0  0  0  0  0  0  0  0  0
    0.3572   10.0776    0.0000 C   0  0  0  0  0  0  0  0  0  0  0  0
   -0.3573    9.6651    0.0000 C   0  0  0  0  0  0  0  0  0  0  0  0
   -0.3573    8.8401    0.0000 C   0  0  0  0  0  0  0  0  0  0  0  0
    1.0717    9.6651    0.0000 C   0  0  0  0  0  0  0  0  0  0  0  0
   -1.0717    8.4276    0.0000 C   0  0  0  0  0  0  0  0  0  0  0  0
    0.3572    8.4276    0.0000 C   0  0  0  0  0  0  0  0  0  0  0  0
   -1.0717    7.6025    0.0000 C   0  0  0  0  0  0  0  0  0  0  0  0
    0.3572    7.6025    0.0000 C   0  0  0  0  0  0  0  0  0  0  0  0
   -0.3573    7.1900    0.0000 C   0  0  0  0  0  0  0  0  0  0  0  0
    0.8002   10.3334    0.0000 H   0  0  0  0  0  0  0  0  0  0  0  0
   -0.5322   10.1457    0.0000 H   0  0  0  0  0  0  0  0  0  0  0  0
   -0.8610    9.5762    0.0000 H   0  0  0  0  0  0  0  0  0  0  0  0
    0.8160    9.2221    0.0000 H   0  0  0  0  0  0  0  0  0  0  0  0
    1.5147    9.4093    0.0000 H   0  0  0  0  0  0  0  0  0  0  0  0
    1.3275   10.1080    0.0000 H   0  0  0  0  0  0  0  0  0  0  0  0
   -1.5148    8.6833    0.0000 H   0  0  0  0  0  0  0  0  0  0  0  0
    0.8002    8.6833    0.0000 H   0  0  0  0  0  0  0  0  0  0  0  0
    0.8002   11.1584    0.0000 H   0  0  0  0  0  0  0  0  0  0  0  0
   -0.0858   11.1584    0.0000 H   0  0  0  0  0  0  0  0  0  0  0  0
   -1.5148    7.3468    0.0000 H   0  0  0  0  0  0  0  0  0  0  0  0
    0.8002    7.3468    0.0000 H   0  0  0  0  0  0  0  0  0  0  0  0
   -0.3573    6.6785    0.0000 H   0  0  0  0  0  0  0  0  0  0  0  0
  1  2  2  0
  2  3  1  0
  3  4  2  0
  4  5  1  0
  5  6  2  0
  1  6  1  0
  4  7  1  0
  7  8  1  0
  8  9  1  0
  9 10  1  0
  5 10  1  0
  8 11  2  0
 11 12  1  0
 12 13  2  0
 13 14  1  0
  9 14  2  0
 10 15  1  0
 15 16  1  0
 16 17  1  0
 17 18  1  0
 18 19  1  0
 18 20  1  0
 13 21  1  0
 22 71  1  0
 22 72  1  0
 68 23  1  0
 23 74  1  0
 69 24  1  0
 24 75  1  0
 70 25  1  0
 25 76  1  0
 72 26  1  0
 26 77  1  0
 27 73  1  0
 27 81  1  0
 28 74  2  0
 29 75  2  0
 30 76  2  0
 31 77  2  0
 32 81  2  0
 33 92  1  0
 33109  1  0
 34 93  1  0
 34110  1  0
 35 96  1  0
 35111  1  0
 36 94  1  0
 36161  1  0
 37 95  1  0
 37162  1  0
 38 97  1  0
 38163  1  0
 39102  1  0
 39112  1  0
 40100  1  0
 40164  1  0
 41101  1  0
 41165  1  0
 42103  1  0
 42166  1  0
 43104  1  0
 43167  1  0
 44105  1  0
 44168  1  0
 45106  1  0
 45115  1  0
 46107  1  0
 46169  1  0
 47108  1  0
 47170  1  0
 48109  2  0
 49110  2  0
 50111  2  0
 51112  2  0
 52115  2  0
 53127  1  0
 53181  1  0
 54128  1  0
 54182  1  0
 55129  1  0
 55183  1  0
 56130  1  0
 56184  1  0
 57131  1  0
 57185  1  0
 58132  1  0
 58186  1  0
 59135  1  0
 59187  1  0
 60136  1  0
 60188  1  0
 61137  1  0
 61189  1  0
 62138  1  0
 62190  1  0
 63139  1  0
 63191  1  0
 64140  1  0
 64192  1  0
 65141  1  0
 65193  1  0
 66142  1  0
 66194  1  0
 67143  1  0
 67195  1  0
 68 69  1  0
 68 70  1  0
 68144  1  6
 69 71  1  0
 69145  1  1
 70 72  1  0
 70146  1  1
 71 73  1  0
 71147  1  6
 72148  1  6
 73149  1  0
 73150  1  0
 74 78  1  0
 75 79  1  0
 76 80  1  0
 77 82  1  0
 78 84  1  0
 78 86  2  0
 79 85  1  0
 79 87  2  0
 80 88  1  0
 80 89  2  0
 81 83  1  0
 82 90  1  0
 82 91  2  0
 83 98  1  0
 83 99  2  0
 84 92  2  0
 84151  1  0
 85 93  2  0
 85152  1  0
 86 94  1  0
 86153  1  0
 87 95  1  0
 87154  1  0
 88 96  2  0
 88155  1  0
 89 97  1  0
 89156  1  0
 90102  2  0
 90157  1  0
 91103  1  0
 91158  1  0
 92100  1  0
 93101  1  0
 94100  2  0
 95101  2  0
 96104  1  0
 97104  2  0
 98106  2  0
 98159  1  0
 99107  1  0
 99160  1  0
102105  1  0
103105  2  0
106108  1  0
107108  2  0
109113  1  0
110114  1  0
111116  1  0
112117  1  0
113119  2  0
113120  1  0
114121  2  0
114122  1  0
115118  1  0
116123  2  0
116124  1  0
117125  2  0
117126  1  0
118133  2  0
118134  1  0
119128  1  0
119171  1  0
120127  2  0
120172  1  0
121130  1  0
121173  1  0
122129  2  0
122174  1  0
123132  1  0
123175  1  0
124131  2  0
124176  1  0
125138  1  0
125177  1  0
126137  2  0
126178  1  0
127135  1  0
128135  2  0
129136  1  0
130136  2  0
131139  1  0
132139  2  0
133142  1  0
133179  1  0
134141  2  0
134180  1  0
137140  1  0
138140  2  0
141143  1  0
142143  2  0
197196  1  0
196214  1  0
196215  1  0
197198  1  0
197200  1  0
197206  1  6
198199  1  0
198207  1  0
198208  1  0
199201  2  0
199202  1  0
200209  1  0
200210  1  0
200211  1  0
201203  1  0
201212  1  0
202204  2  0
202213  1  0
203205  2  0
203216  1  0
204205  1  0
204217  1  0
205218  1  0
V   22 0
V   23 1
V   24 2
V   25 3
V   26 4
V   27 5
V   28 6
V   29 7
V   30 8
V   31 9
V   32 10
V   33 11
V   34 12
V   35 13
V   36 14
V   37 15
V   38 16
V   39 17
V   40 18
V   41 19
V   42 20
V   43 21
V   44 22
V   45 23
V   46 24
V   47 25
V   48 26
V   49 27
V   50 28
V   51 29
V   52 30
V   53 31
V   54 32
V   55 33
V   56 34
V   57 35
V   58 36
V   59 37
V   60 38
V   61 39
V   62 40
V   63 41
V   64 42
V   65 43
V   66 44
V   67 45
V   68 47
V   69 48
V   70 49
V   71 50
V   72 51
V   73 52
V   74 53
V   75 54
V   76 55
V   77 56
V   78 57
V   79 58
V   80 59
V   81 60
V   82 61
V   83 62
V   84 63
V   85 64
V   86 65
V   87 66
V   88 67
V   89 68
V   90 69
V   91 70
V   92 71
V   93 72
V   94 73
V   95 74
V   96 75
V   97 76
V   98 77
V   99 78
V  100 79
V  101 80
V  102 81
V  103 82
V  104 83
V  105 84
V  106 85
V  107 86
V  108 87
V  109 88
V  110 89
V  111 90
V  112 91
V  113 92
V  114 93
V  115 94
V  116 95
V  117 96
V  118 97
V  119 98
V  120 99
V  121 100
V  122 101
V  123 102
V  124 103
V  125 104
V  126 105
V  127 106
V  128 107
V  129 108
V  130 109
V  131 110
V  132 111
V  133 112
V  134 113
V  135 114
V  136 115
V  137 116
V  138 117
V  139 118
V  140 119
V  141 120
V  142 121
V  143 122
V  144 132
V  145 133
V  146 134
V  147 135
V  148 136
V  149 137
V  150 138
V  151 139
V  152 140
V  153 141
V  154 142
V  155 143
V  156 144
V  157 145
V  158 146
V  159 147
V  160 148
V  161 149
V  162 150
V  163 151
V  164 152
V  165 153
V  166 154
V  167 155
V  168 156
V  169 157
V  170 158
V  171 159
V  172 160
V  173 161
V  174 162
V  175 163
V  176 164
V  177 165
V  178 166
V  179 167
V  180 168
V  181 169
V  182 170
V  183 171
V  184 172
V  185 173
V  186 174
V  187 175
V  188 176
V  189 177
V  190 178
V  191 179
V  192 180
V  193 181
V  194 182
V  195 183
V  196 46
V  197 123
V  198 124
V  199 125
V  200 126
V  201 127
V  202 128
V  203 129
V  204 130
V  205 131
V  206 184
V  207 185
V  208 186
V  209 187
V  210 188
V  211 189
V  212 190
V  213 191
V  214 192
V  215 193
V  216 194
V  217 195
V  218 196
M  END
