109793-76-2.mol
     RDKit          2D

113114  0  0  1  0  0  0  0  0999 V2000
   -2.3818   -1.6890    0.0000 S   0  0  0  0  0  0  0  0  0  0  0  0
   -2.3818   -0.8388    0.0000 S   0  0  0  0  0  0  0  0  0  0  0  0
    1.2999    0.4366    0.0000 S   0  0  0  0  0  0  0  0  0  0  0  0
    0.5636    0.8617    0.0000 S   0  0  0  0  0  0  0  0  0  0  0  0
   -1.6455   -4.6649    0.0000 O   0  0  0  0  0  0  0  0  0  0  0  0
    1.5530   -4.4981    0.0000 O   0  0  0  0  0  0  0  0  0  0  0  0
   -1.7058   -3.8980    0.0000 O   0  0  0  0  0  0  0  0  0  0  0  0
    0.1385   -2.6532    0.0000 O   0  0  0  0  0  0  0  0  0  0  0  0
    3.9824   -2.3763    0.0000 O   0  0  0  0  0  0  0  0  0  0  0  0
    3.9312    0.8488    0.0000 O   0  0  0  0  0  0  0  0  0  0  0  0
    2.0362   -2.5393    0.0000 O   0  0  0  0  0  0  0  0  0  0  0  0
    4.8055   -2.7648    0.0000 O   0  0  0  0  0  0  0  0  0  0  0  0
    2.9408   -5.5812    0.0000 O   0  0  0  0  0  0  0  0  0  0  0  0
    2.0362    0.8617    0.0000 O   0  0  0  0  0  0  0  0  0  0  0  0
    1.7417    2.8327    0.0000 O   0  0  0  0  0  0  0  0  0  0  0  0
    3.4444   -4.1974    0.0000 O   0  0  0  0  0  0  0  0  0  0  0  0
   -3.8545    1.7120    0.0000 O   0  0  0  0  0  0  0  0  0  0  0  0
    0.5636    3.4125    0.0000 O   0  0  0  0  0  0  0  0  0  0  0  0
   -1.1373    1.8976    0.0000 O   0  0  0  0  0  0  0  0  0  0  0  0
   -6.7999    0.8617    0.0000 O   0  0  0  0  0  0  0  0  0  0  0  0
    5.1070    1.4434    0.0000 O   0  0  0  0  0  0  0  0  0  0  0  0
   -6.0635   -0.4137    0.0000 O   0  0  0  0  0  0  0  0  0  0  0  0
   -2.3818    4.2628    0.0000 O   0  0  0  0  0  0  0  0  0  0  0  0
   -1.5445    1.5644    0.0000 O   0  0  0  0  0  0  0  0  0  0  0  0
    5.7180   -0.4137    0.0000 O   0  0  0  0  0  0  0  0  0  0  0  0
    6.4544    0.8617    0.0000 O   0  0  0  0  0  0  0  0  0  0  0  0
    4.8986    4.5019    0.0000 O   0  0  0  0  0  0  0  0  0  0  0  0
    6.8525    2.8623    0.0000 O   0  0  0  0  0  0  0  0  0  0  0  0
    5.9059    1.7342    0.0000 O   0  0  0  0  0  0  0  0  0  0  0  0
    2.1456    5.8507    0.0000 O   0  0  0  0  0  0  0  0  0  0  0  0
    0.5636   -4.2398    0.0000 N   0  0  0  0  0  0  0  0  0  0  0  0
   -0.2088   -3.7439    0.0000 N   0  0  0  0  0  0  0  0  0  0  0  0
   -0.9091   -3.3896    0.0000 N   0  0  0  0  0  0  0  0  0  0  0  0
    2.1608   -3.2879    0.0000 N   0  0  0  0  0  0  0  0  0  0  0  0
    3.4343   -1.2382    0.0000 N   0  0  0  0  0  0  0  0  0  0  0  0
    1.2999   -2.1142    0.0000 N   0  0  0  0  0  0  0  0  0  0  0  0
    2.7936    1.0883    0.0000 N   0  0  0  0  0  0  0  0  0  0  0  0
    2.7727   -0.4137    0.0000 N   0  0  0  0  0  0  0  0  0  0  0  0
    0.6501    2.1969    0.0000 N   0  0  0  0  0  0  0  0  0  0  0  0
    3.6566    1.6991    0.0000 N   0  0  0  0  0  0  0  0  0  0  0  0
   -4.5908    0.4366    0.0000 N   0  0  0  0  0  0  0  0  0  0  0  0
   -0.9091    3.4125    0.0000 N   0  0  0  0  0  0  0  0  0  0  0  0
   -2.3818    0.8617    0.0000 N   0  0  0  0  0  0  0  0  0  0  0  0
    4.5567   -4.2163    0.0000 N   0  0  0  0  0  0  0  0  0  0  0  0
   -3.1181    2.9874    0.0000 N   0  0  0  0  0  0  0  0  0  0  0  0
    3.9519    3.3738    0.0000 N   0  0  0  0  0  0  0  0  0  0  0  0
    2.6492    4.4668    0.0000 N   0  0  0  0  0  0  0  0  0  0  0  0
    3.0922    6.9789    0.0000 N   0  0  0  0  0  0  0  0  0  0  0  0
   -0.1727   -4.6649    0.0000 C   0  0  0  0  0  0  0  0  0  0  0  0
   -0.1727   -5.5152    0.0000 C   0  0  0  0  0  0  0  0  0  0  0  0
   -0.9091   -5.9403    0.0000 C   0  0  0  0  0  0  0  0  0  0  0  0
    0.6132   -3.8138    0.0000 C   0  0  0  0  0  0  0  0  0  0  0  0
    0.6581   -4.6628    0.0000 C   0  0  0  0  0  0  0  0  0  0  0  0
   -1.6455   -2.9644    0.0000 C   0  0  0  0  0  0  0  0  0  0  0  0
   -0.9091   -4.2398    0.0000 C   0  0  0  0  0  0  0  0  0  0  0  0
    1.2999   -2.9644    0.0000 C   0  0  0  0  0  0  0  0  0  0  0  0
    3.4394   -0.4131    0.0000 C   0  0  0  0  0  0  0  0  0  0  0  0
    2.7701   -2.7315    0.0000 C   0  0  0  0  0  0  0  0  0  0  0  0
    1.4235   -3.6578    0.0000 C   0  0  0  0  0  0  0  0  0  0  0  0
    4.2824   -0.3018    0.0000 C   0  0  0  0  0  0  0  0  0  0  0  0
   -0.9091   -6.7906    0.0000 C   0  0  0  0  0  0  0  0  0  0  0  0
   -1.6455   -5.5152    0.0000 C   0  0  0  0  0  0  0  0  0  0  0  0
   -0.9811   -3.4535    0.0000 C   0  0  0  0  0  0  0  0  0  0  0  0
    0.5636   -3.3896    0.0000 C   0  0  0  0  0  0  0  0  0  0  0  0
    1.8465   -3.6157    0.0000 C   0  0  0  0  0  0  0  0  0  0  0  0
    1.4157   -5.0486    0.0000 C   0  0  0  0  0  0  0  0  0  0  0  0
    0.7028   -5.5119    0.0000 C   0  0  0  0  0  0  0  0  0  0  0  0
   -1.6455   -2.1142    0.0000 C   0  0  0  0  0  0  0  0  0  0  0  0
    3.2055   -2.0308    0.0000 C   0  0  0  0  0  0  0  0  0  0  0  0
    3.4240   -3.2750    0.0000 C   0  0  0  0  0  0  0  0  0  0  0  0
    3.2203    0.3823    0.0000 C   0  0  0  0  0  0  0  0  0  0  0  0
    4.8003   -0.9761    0.0000 C   0  0  0  0  0  0  0  0  0  0  0  0
    4.9567    0.2161    0.0000 C   0  0  0  0  0  0  0  0  0  0  0  0
    2.0362   -0.8388    0.0000 C   0  0  0  0  0  0  0  0  0  0  0  0
    1.9942   -4.4531    0.0000 C   0  0  0  0  0  0  0  0  0  0  0  0
    2.0362   -1.6890    0.0000 C   0  0  0  0  0  0  0  0  0  0  0  0
    2.1912    1.6520    0.0000 C   0  0  0  0  0  0  0  0  0  0  0  0
    1.2999   -0.4137    0.0000 C   0  0  0  0  0  0  0  0  0  0  0  0
    3.5090    0.8617    0.0000 C   0  0  0  0  0  0  0  0  0  0  0  0
    4.2621   -3.4187    0.0000 C   0  0  0  0  0  0  0  0  0  0  0  0
   -0.1727    2.1371    0.0000 C   0  0  0  0  0  0  0  0  0  0  0  0
   -5.3272    1.7120    0.0000 C   0  0  0  0  0  0  0  0  0  0  0  0
    2.7727    0.4366    0.0000 C   0  0  0  0  0  0  0  0  0  0  0  0
   -5.3272    0.8617    0.0000 C   0  0  0  0  0  0  0  0  0  0  0  0
   -6.0635    2.1371    0.0000 C   0  0  0  0  0  0  0  0  0  0  0  0
    1.4583    2.0311    0.0000 C   0  0  0  0  0  0  0  0  0  0  0  0
   -3.1181    0.4366    0.0000 C   0  0  0  0  0  0  0  0  0  0  0  0
    4.2453    0.4366    0.0000 C   0  0  0  0  0  0  0  0  0  0  0  0
    2.6815    2.3466    0.0000 C   0  0  0  0  0  0  0  0  0  0  0  0
    2.7931   -4.7439    0.0000 C   0  0  0  0  0  0  0  0  0  0  0  0
   -3.1181   -0.4137    0.0000 C   0  0  0  0  0  0  0  0  0  0  0  0
    0.5636    1.7120    0.0000 C   0  0  0  0  0  0  0  0  0  0  0  0
   -1.6455    2.9874    0.0000 C   0  0  0  0  0  0  0  0  0  0  0  0
   -3.8545    0.8617    0.0000 C   0  0  0  0  0  0  0  0  0  0  0  0
   -0.1727    2.9874    0.0000 C   0  0  0  0  0  0  0  0  0  0  0  0
    4.9816    0.8617    0.0000 C   0  0  0  0  0  0  0  0  0  0  0  0
   -6.0635    2.9874    0.0000 C   0  0  0  0  0  0  0  0  0  0  0  0
   -6.7999    1.7120    0.0000 C   0  0  0  0  0  0  0  0  0  0  0  0
    4.6033    2.8273    0.0000 C   0  0  0  0  0  0  0  0  0  0  0  0
   -1.9362    2.1884    0.0000 C   0  0  0  0  0  0  0  0  0  0  0  0
    4.4556    1.9899    0.0000 C   0  0  0  0  0  0  0  0  0  0  0  0
   -6.0635    0.4366    0.0000 C   0  0  0  0  0  0  0  0  0  0  0  0
   -2.3818    3.4125    0.0000 C   0  0  0  0  0  0  0  0  0  0  0  0
   -2.3818    1.7120    0.0000 C   0  0  0  0  0  0  0  0  0  0  0  0
   -3.1181    2.1371    0.0000 C   0  0  0  0  0  0  0  0  0  0  0  0
    5.4022    3.1181    0.0000 C   0  0  0  0  0  0  0  0  0  0  0  0
   -2.7352    2.4793    0.0000 C   0  0  0  0  0  0  0  0  0  0  0  0
    5.7180    0.4366    0.0000 C   0  0  0  0  0  0  0  0  0  0  0  0
    4.0996    4.2112    0.0000 C   0  0  0  0  0  0  0  0  0  0  0  0
    3.4482    4.7576    0.0000 C   0  0  0  0  0  0  0  0  0  0  0  0
    6.0535    2.5715    0.0000 C   0  0  0  0  0  0  0  0  0  0  0  0
    3.5959    5.5950    0.0000 C   0  0  0  0  0  0  0  0  0  0  0  0
    2.9445    6.1415    0.0000 C   0  0  0  0  0  0  0  0  0  0  0  0
  1  2  1  0
  1 68  1  0
  2 91  1  0
  3  4  1  0
  3 78  1  0
  4 92  1  0
  5 55  2  0
  6 59  2  0
  7 63  2  0
  8 64  2  0
  9 69  2  0
 10 71  2  0
 11 76  2  0
 12 80  2  0
 13 90  1  0
 14 83  2  0
 15 86  2  0
 16 90  2  0
 17 94  2  0
 18 95  2  0
100 19  1  0
 20102  1  0
 21101  2  0
 22102  2  0
 23103  2  0
 24104  2  0
 25108  1  0
 26108  2  0
 27109  2  0
 28111  1  0
 29111  2  0
 30113  2  0
 31 49  1  0
 31 64  1  0
 32 52  1  0
 32 63  1  0
 33 54  1  0
 33 55  1  0
 34 58  1  0
 34 59  1  0
 35 57  1  0
 35 69  1  0
 36 56  1  0
 36 76  1  0
 37 71  1  0
 37 77  1  0
 74 38  1  6
 38 83  1  0
 39 81  1  0
 39 86  1  0
 79 40  1  0
 40101  1  0
 84 41  1  0
 41 94  1  0
 93 42  1  1
 42 95  1  0
 43 87  1  0
 43104  1  0
 44 80  1  0
 45103  1  0
 45105  1  0
 99 46  1  0
 46109  1  0
110 47  1  1
 48113  1  0
 49 50  1  1
 49 55  1  0
 50 51  1  0
 51 61  1  0
 51 62  1  0
 52 53  1  6
 52 59  1  0
 53 66  1  0
 53 67  1  0
 54 63  1  0
 54 68  1  6
 56 64  1  0
 56 65  1  1
 57 60  1  6
 57 71  1  0
 58 69  1  0
 58 70  1  6
 60 72  1  0
 60 73  1  0
 65 75  1  0
 70 80  1  0
 74 76  1  0
 74 78  1  0
 75 90  1  0
 77 86  1  0
 77 89  1  6
 79 83  1  0
 79 88  1  1
 81 92  1  1
 81 95  1  0
 84 82  1  6
 82 85  1  0
 84102  1  0
 85 97  1  0
 85 98  1  0
 87 91  1  0
 87 94  1  1
 88 96  1  0
 93100  1  0
 93103  1  0
 96108  1  0
 99101  1  0
 99106  1  1
100107  1  6
104105  1  0
106111  1  0
109110  1  0
110112  1  0
112113  1  0
V    1 0
V    2 1
V    3 2
V    4 3
V    5 4
V    6 5
V    7 6
V    8 7
V    9 8
V   10 9
V   11 10
V   12 11
V   13 12
V   14 13
V   15 14
V   16 15
V   17 16
V   18 17
V   19 18
V   20 19
V   21 20
V   22 21
V   23 22
V   24 23
V   25 24
V   26 25
V   27 26
V   28 27
V   29 28
V   30 29
V   31 30
V   32 31
V   33 32
V   34 33
V   35 34
V   36 35
V   37 36
V   38 37
V   39 38
V   40 39
V   41 40
V   42 41
V   43 42
V   44 43
V   45 44
V   46 45
V   47 46
V   48 47
V   49 48
V   50 49
V   51 50
V   52 51
V   53 52
V   54 53
V   55 54
V   56 55
V   57 56
V   58 57
V   59 58
V   60 59
V   61 60
V   62 61
V   63 62
V   64 63
V   65 64
V   66 65
V   67 66
V   68 67
V   69 68
V   70 69
V   71 70
V   72 71
V   73 72
V   74 73
V   75 74
V   76 75
V   77 76
V   78 77
V   79 78
V   80 79
V   81 80
V   82 81
V   83 82
V   84 83
V   85 84
V   86 85
V   87 86
V   88 87
V   89 88
V   90 89
V   91 90
V   92 91
V   93 92
V   94 93
V   95 94
V   96 95
V   97 96
V   98 97
V   99 98
V  100 99
V  101 100
V  102 101
V  103 102
V  104 103
V  105 104
V  106 105
V  107 106
V  108 107
V  109 108
V  110 109
V  111 110
V  112 111
V  113 112
M  END
