 
     RDKit          2D

 31 31  0  0  1  0  0  0  0  0999 V2000
   21.0055  -18.6181    0.0000 C   0  0  0  0  0  0  0  0  0  0  0  0
   22.2165  -19.3259    0.0000 C   0  0  0  0  0  0  0  0  0  0  0  0
   21.0114  -17.2258    0.0000 C   0  0  0  0  0  0  0  0  0  0  0  0
   19.7888  -19.3201    0.0000 C   0  0  0  0  0  0  0  0  0  0  0  0
   21.0114  -20.0162    0.0000 O   0  0  0  0  0  0  0  0  0  0  0  0
   23.4274  -18.6298    0.0000 C   0  0  0  0  0  0  0  0  0  0  0  0
   22.2107  -20.7299    0.0000 C   0  0  0  0  0  0  0  0  0  0  0  0
   19.7945  -16.5238    0.0000 C   0  0  0  0  0  0  0  0  0  0  0  0
   22.2222  -16.5238    0.0000 C   0  0  0  0  0  0  0  0  0  0  0  0
   18.5836  -18.6239    0.0000 C   0  0  0  0  0  0  0  0  0  0  0  0
   24.6325  -19.3318    0.0000 C   0  0  0  0  0  0  0  0  0  0  0  0
   23.4215  -21.4319    0.0000 C   0  0  0  0  0  0  0  0  0  0  0  0
   18.5778  -17.2258    0.0000 C   0  0  0  0  0  0  0  0  0  0  0  0
   22.2222  -15.1257    0.0000 N   0  0  0  0  0  0  0  0  0  0  0  0
   24.6384  -20.7359    0.0000 C   0  0  0  0  0  0  0  0  0  0  0  0
   25.8494  -18.6298    0.0000 O   0  0  0  0  0  0  0  0  0  0  0  0
   23.4332  -14.4236    0.0000 C   0  0  0  0  0  0  0  0  0  0  0  0
   21.0114  -14.4236    0.0000 C   0  0  0  0  0  0  0  0  0  0  0  0
   27.0603  -19.3318    0.0000 C   0  0  0  0  0  0  0  0  0  0  0  0
   31.3776  -18.7645    0.0000 Cl  0  0  0  0  0  0  0  0  0  0  0  0
   21.1806  -16.6437    0.0000 C   0  0  0  0  0  0  0  0  0  0  0  0
   21.1806  -18.0466    0.0000 C   0  0  0  0  0  0  0  0  0  0  0  0
   19.9699  -15.9511    0.0000 C   0  0  0  0  0  0  0  0  0  0  0  0
   22.3914  -15.9511    0.0000 N   0  0  0  0  0  0  0  0  0  0  0  0
   19.9699  -18.7509    0.0000 C   0  0  0  0  0  0  0  0  0  0  0  0
   18.7534  -16.6437    0.0000 C   0  0  0  0  0  0  0  0  0  0  0  0
   23.6080  -16.6496    0.0000 C   0  0  0  0  0  0  0  0  0  0  0  0
   18.7534  -18.0466    0.0000 C   0  0  0  0  0  0  0  0  0  0  0  0
   24.8186  -15.9511    0.0000 C   0  0  0  0  0  0  0  0  0  0  0  0
   23.6020  -18.0466    0.0000 O   0  0  0  0  0  0  0  0  0  0  0  0
   17.5425  -18.7509    0.0000 O   0  0  0  0  0  0  0  0  0  0  0  0
  1  2  1  0
  1  3  1  0
  1  4  1  0
  1  5  1  6
  2  6  2  0
  2  7  1  0
  3  8  1  0
  3  9  1  6
  4 10  1  0
  6 11  1  0
  7 12  2  0
  8 13  1  0
  9 14  1  0
 11 15  2  0
 11 16  1  0
 14 17  1  0
 14 18  1  0
 16 19  1  0
 10 13  1  0
 12 15  1  0
 21 22  2  0
 21 23  1  0
 21 24  1  0
 22 25  1  0
 23 26  2  0
 24 27  1  0
 25 28  2  0
 27 29  1  0
 27 30  2  0
 28 31  1  0
 26 28  1  0
M  END
