168318470
     RDKit          2D

 67 72  0  0  1  0  0  0  0  0999 V2000
    3.9769    1.0985    0.0000 Cl  0  0  0  0  0  0  0  0  0  0  0  0
   11.2009   -3.4897    0.0000 S   0  0  0  0  0  0  0  0  0  0  0  0
    7.9789    3.2192    0.0000 O   0  0  0  0  0  0  0  0  0  0  0  0
    8.3654    1.8917    0.0000 O   0  0  0  0  0  0  0  0  0  0  0  0
    9.3104    5.5946    0.0000 O   0  0  0  0  0  0  0  0  0  0  0  0
    7.5783    7.5946    0.0000 O   0  0  0  0  0  0  0  0  0  0  0  0
    6.1387    7.9138    0.0000 O   0  0  0  0  0  0  0  0  0  0  0  0
    6.3536   -0.1125    0.0000 O   0  0  0  0  0  0  0  0  0  0  0  0
   10.1764    7.0946    0.0000 O   0  0  0  0  0  0  0  0  0  0  0  0
    7.5656    0.3554    0.0000 O   0  0  0  0  0  0  0  0  0  0  0  0
   11.0701   -0.4926    0.0000 O   0  0  0  0  0  0  0  0  0  0  0  0
   16.7964   -8.1316    0.0000 O   0  0  0  0  0  0  0  0  0  0  0  0
    2.8660    1.8740    0.0000 O   0  0  0  0  0  0  0  0  0  0  0  0
   13.1479   -2.5190    0.0000 O   0  0  0  0  0  0  0  0  0  0  0  0
   13.6682   -6.0005    0.0000 O   0  0  0  0  0  0  0  0  0  0  0  0
    8.4443    7.0946    0.0000 N   0  0  0  0  0  0  0  0  0  0  0  0
    5.4875    1.3875    0.0000 N   0  0  0  0  0  0  0  0  0  0  0  0
    9.3397   -0.5681    0.0000 N   0  0  0  0  0  0  0  0  0  0  0  0
   13.6838   -4.2185    0.0000 N   0  0  0  0  0  0  0  0  0  0  0  0
   18.1519   -7.0534    0.0000 N   0  0  0  0  0  0  0  0  0  0  0  0
    6.9784    3.2195    0.0000 C   0  0  0  0  0  0  0  0  0  0  0  0
    7.4784    4.0855    0.0000 C   0  0  0  0  0  0  0  0  0  0  0  0
    8.4443    4.0946    0.0000 C   0  0  0  0  0  0  0  0  0  0  0  0
    7.4784    2.3535    0.0000 C   0  0  0  0  0  0  0  0  0  0  0  0
    8.4443    5.0946    0.0000 C   0  0  0  0  0  0  0  0  0  0  0  0
    6.1124    3.7195    0.0000 C   0  0  0  0  0  0  0  0  0  0  0  0
    9.4268    3.9084    0.0000 C   0  0  0  0  0  0  0  0  0  0  0  0
    7.5783    5.5946    0.0000 C   0  0  0  0  0  0  0  0  0  0  0  0
    7.2196    1.3875    0.0000 C   0  0  0  0  0  0  0  0  0  0  0  0
    7.5783    6.5946    0.0000 C   0  0  0  0  0  0  0  0  0  0  0  0
    6.7123    7.0946    0.0000 C   0  0  0  0  0  0  0  0  0  0  0  0
    6.3536    0.8875    0.0000 C   0  0  0  0  0  0  0  0  0  0  0  0
    9.3104    6.5946    0.0000 C   0  0  0  0  0  0  0  0  0  0  0  0
    8.4090    0.8927    0.0000 C   0  0  0  0  0  0  0  0  0  0  0  0
    9.2960    0.4309    0.0000 C   0  0  0  0  0  0  0  0  0  0  0  0
    5.8463    6.5946    0.0000 C   0  0  0  0  0  0  0  0  0  0  0  0
   15.2953   -4.8533    0.0000 C   0  0  0  0  0  0  0  0  0  0  0  0
    5.4875    2.3875    0.0000 C   0  0  0  0  0  0  0  0  0  0  0  0
    5.1455    0.4478    0.0000 C   0  0  0  0  0  0  0  0  0  0  0  0
   10.1394    0.9682    0.0000 C   0  0  0  0  0  0  0  0  0  0  0  0
   14.9288   -5.7838    0.0000 C   0  0  0  0  0  0  0  0  0  0  0  0
   16.2843   -4.7055    0.0000 C   0  0  0  0  0  0  0  0  0  0  0  0
   16.5403   -6.4186    0.0000 C   0  0  0  0  0  0  0  0  0  0  0  0
    4.8803    6.8535    0.0000 C   0  0  0  0  0  0  0  0  0  0  0  0
   15.5513   -6.5664    0.0000 C   0  0  0  0  0  0  0  0  0  0  0  0
   16.9068   -5.4881    0.0000 C   0  0  0  0  0  0  0  0  0  0  0  0
    5.1425    7.8266    0.0000 C   0  0  0  0  0  0  0  0  0  0  0  0
   14.6728   -4.0707    0.0000 C   0  0  0  0  0  0  0  0  0  0  0  0
    4.6215    2.8875    0.0000 C   0  0  0  0  0  0  0  0  0  0  0  0
   10.2267   -1.0299    0.0000 C   0  0  0  0  0  0  0  0  0  0  0  0
    4.6137    1.8695    0.0000 C   0  0  0  0  0  0  0  0  0  0  0  0
    8.4963   -1.1054    0.0000 C   0  0  0  0  0  0  0  0  0  0  0  0
    4.6215    5.8875    0.0000 C   0  0  0  0  0  0  0  0  0  0  0  0
   17.1629   -7.2012    0.0000 C   0  0  0  0  0  0  0  0  0  0  0  0
    4.6215    3.8875    0.0000 C   0  0  0  0  0  0  0  0  0  0  0  0
   12.0879   -3.9515    0.0000 C   0  0  0  0  0  0  0  0  0  0  0  0
   10.2703   -2.0289    0.0000 C   0  0  0  0  0  0  0  0  0  0  0  0
   12.9829   -3.5053    0.0000 C   0  0  0  0  0  0  0  0  0  0  0  0
   13.2220   -5.1055    0.0000 C   0  0  0  0  0  0  0  0  0  0  0  0
   12.2358   -4.9405    0.0000 C   0  0  0  0  0  0  0  0  0  0  0  0
    3.7555    4.3875    0.0000 C   0  0  0  0  0  0  0  0  0  0  0  0
    3.7555    5.3875    0.0000 C   0  0  0  0  0  0  0  0  0  0  0  0
    3.7320    2.3740    0.0000 C   0  0  0  0  0  0  0  0  0  0  0  0
    3.7360    3.3898    0.0000 C   0  0  0  0  0  0  0  0  0  0  0  0
   11.1573   -2.4907    0.0000 C   0  0  0  0  0  0  0  0  0  0  0  0
    2.8895    5.8875    0.0000 C   0  0  0  0  0  0  0  0  0  0  0  0
    2.0000    2.3740    0.0000 C   0  0  0  0  0  0  0  0  0  0  0  0
  1 51  1  0
  2 56  1  0
  2 65  1  0
  3 21  1  0
 22  3  1  1
 24  4  1  1
  4 34  1  0
 25  5  1  6
  5 33  1  0
 30  6  1  1
 31  7  1  1
  7 47  1  0
  8 32  2  0
  9 33  2  0
 10 34  2  0
 11 50  2  0
 12 54  2  0
 13 63  1  0
 13 67  1  0
 14 58  2  0
 15 59  2  0
 16 30  1  0
 16 33  1  0
 17 32  1  0
 17 38  1  0
 17 39  1  0
 35 18  1  0
 18 50  1  0
 18 52  1  0
 19 48  1  0
 19 58  1  0
 19 59  1  0
 20 54  1  0
 21 22  1  0
 21 24  1  0
 21 26  1  6
 22 23  1  0
 23 25  1  0
 23 27  1  1
 24 29  1  0
 25 28  1  0
 28 30  1  0
 29 32  1  0
 30 31  1  0
 31 36  1  0
 34 35  1  0
 35 40  1  6
 36 44  2  3
 37 41  1  0
 37 42  1  0
 37 48  1  0
 38 49  1  0
 38 51  2  0
 41 45  1  0
 42 46  1  0
 43 45  1  0
 43 46  1  0
 43 54  1  0
 44 53  1  0
 49 55  2  0
 50 57  1  0
 51 63  1  0
 53 62  2  3
 55 61  1  0
 55 64  1  0
 56 58  1  0
 56 60  1  0
 57 65  1  0
 59 60  1  0
 61 62  1  0
 62 66  1  0
 63 64  2  0
M  END
