121494119
     RDKit          2D

444494  0  0  1  0  0  0  0  0999 V2000
   24.4140   21.2365    0.0000 S   0  0  0  0  0  0  0  0  0  0  0  0
   20.5752   22.9186    0.0000 S   0  0  0  0  0  0  0  0  0  0  0  0
   22.4628   16.2797    0.0000 S   0  0  0  0  0  0  0  0  0  0  0  0
   23.1773   11.5246    0.0000 S   0  0  0  0  0  0  0  0  0  0  0  0
   19.0902    9.8484    0.0000 S   0  0  0  0  0  0  0  0  0  0  0  0
   17.6692   26.3842    0.0000 S   0  0  0  0  0  0  0  0  0  0  0  0
   26.7327   -3.2476    0.0000 S   0  0  0  0  0  0  0  0  0  0  0  0
   20.1685    3.7266    0.0000 S   0  0  0  0  0  0  0  0  0  0  0  0
   13.4764   26.3102    0.0000 S   0  0  0  0  0  0  0  0  0  0  0  0
   21.2200    0.3169    0.0000 S   0  0  0  0  0  0  0  0  0  0  0  0
   25.2873   -5.8775    0.0000 S   0  0  0  0  0  0  0  0  0  0  0  0
   24.2958   -9.8552    0.0000 S   0  0  0  0  0  0  0  0  0  0  0  0
   25.1191  -11.8968    0.0000 S   0  0  0  0  0  0  0  0  0  0  0  0
    9.2059   27.4185    0.0000 S   0  0  0  0  0  0  0  0  0  0  0  0
   24.1925  -17.4102    0.0000 S   0  0  0  0  0  0  0  0  0  0  0  0
   25.0843  -20.9926    0.0000 S   0  0  0  0  0  0  0  0  0  0  0  0
   25.3087  -24.6782    0.0000 S   0  0  0  0  0  0  0  0  0  0  0  0
    7.4279   28.9591    0.0000 S   0  0  0  0  0  0  0  0  0  0  0  0
   27.4195  -28.6782    0.0000 S   0  0  0  0  0  0  0  0  0  0  0  0
   23.4624   20.9291    0.0000 P   0  0  0  0  0  0  0  0  0  0  0  0
   20.9835   23.8314    0.0000 P   0  0  0  0  0  0  0  0  0  0  0  0
   22.9642   17.1449    0.0000 P   0  0  0  0  0  0  0  0  0  0  0  0
   23.3869   12.5023    0.0000 P   0  0  0  0  0  0  0  0  0  0  0  0
   19.9554    9.3469    0.0000 P   0  0  0  0  0  0  0  0  0  0  0  0
   16.7176   26.0768    0.0000 P   0  0  0  0  0  0  0  0  0  0  0  0
   25.9907   -2.5772    0.0000 P   0  0  0  0  0  0  0  0  0  0  0  0
   20.3781    4.7044    0.0000 P   0  0  0  0  0  0  0  0  0  0  0  0
   13.0681   25.3974    0.0000 P   0  0  0  0  0  0  0  0  0  0  0  0
   22.2147    0.4197    0.0000 P   0  0  0  0  0  0  0  0  0  0  0  0
   25.8478   -5.0494    0.0000 P   0  0  0  0  0  0  0  0  0  0  0  0
   23.6024   -9.1347    0.0000 P   0  0  0  0  0  0  0  0  0  0  0  0
   24.2701  -12.4253    0.0000 P   0  0  0  0  0  0  0  0  0  0  0  0
   23.2318  -17.1329    0.0000 P   0  0  0  0  0  0  0  0  0  0  0  0
    9.5132   26.4669    0.0000 P   0  0  0  0  0  0  0  0  0  0  0  0
   24.2023  -20.5216    0.0000 P   0  0  0  0  0  0  0  0  0  0  0  0
   25.9528  -23.9133    0.0000 P   0  0  0  0  0  0  0  0  0  0  0  0
    7.9294   29.8242    0.0000 P   0  0  0  0  0  0  0  0  0  0  0  0
   26.4201  -28.7114    0.0000 P   0  0  0  0  0  0  0  0  0  0  0  0
   24.4861   24.0997    0.0000 O   0  0  0  0  0  0  0  0  0  0  0  0
   17.7209   23.1560    0.0000 O   0  0  0  0  0  0  0  0  0  0  0  0
   26.0054   18.5056    0.0000 O   0  0  0  0  0  0  0  0  0  0  0  0
   22.0479   15.5532    0.0000 O   0  0  0  0  0  0  0  0  0  0  0  0
   22.9966   10.7077    0.0000 O   0  0  0  0  0  0  0  0  0  0  0  0
   13.8230   27.0716    0.0000 O   0  0  0  0  0  0  0  0  0  0  0  0
   19.0391    7.7553    0.0000 O   0  0  0  0  0  0  0  0  0  0  0  0
   25.2920    0.6804    0.0000 O   0  0  0  0  0  0  0  0  0  0  0  0
   26.7944   -5.6177    0.0000 O   0  0  0  0  0  0  0  0  0  0  0  0
   23.1550   21.8807    0.0000 O   0  0  0  0  0  0  0  0  0  0  0  0
   20.0707   24.2397    0.0000 O   0  0  0  0  0  0  0  0  0  0  0  0
   23.4657   18.0100    0.0000 O   0  0  0  0  0  0  0  0  0  0  0  0
   23.5965   13.4801    0.0000 O   0  0  0  0  0  0  0  0  0  0  0  0
   20.4569   10.2121    0.0000 O   0  0  0  0  0  0  0  0  0  0  0  0
   19.9985    2.9075    0.0000 O   0  0  0  0  0  0  0  0  0  0  0  0
   10.0830   24.7209    0.0000 O   0  0  0  0  0  0  0  0  0  0  0  0
   16.4102   27.0284    0.0000 O   0  0  0  0  0  0  0  0  0  0  0  0
   21.4171  -11.3170    0.0000 O   0  0  0  0  0  0  0  0  0  0  0  0
   20.5877    5.6822    0.0000 O   0  0  0  0  0  0  0  0  0  0  0  0
   25.2487   -1.9068    0.0000 O   0  0  0  0  0  0  0  0  0  0  0  0
   25.3183   21.6495    0.0000 O   0  0  0  0  0  0  0  0  0  0  0  0
   24.1981   -5.8565    0.0000 O   0  0  0  0  0  0  0  0  0  0  0  0
   20.0669   22.0642    0.0000 O   0  0  0  0  0  0  0  0  0  0  0  0
   24.7415   16.2478    0.0000 O   0  0  0  0  0  0  0  0  0  0  0  0
   26.4085   -4.2214    0.0000 O   0  0  0  0  0  0  0  0  0  0  0  0
   21.4677   13.0315    0.0000 O   0  0  0  0  0  0  0  0  0  0  0  0
   21.7326    8.4498    0.0000 O   0  0  0  0  0  0  0  0  0  0  0  0
   22.1119    1.4144    0.0000 O   0  0  0  0  0  0  0  0  0  0  0  0
   12.6598   24.4845    0.0000 O   0  0  0  0  0  0  0  0  0  0  0  0
   21.8964   23.4231    0.0000 O   0  0  0  0  0  0  0  0  0  0  0  0
   15.5288   29.0174    0.0000 O   0  0  0  0  0  0  0  0  0  0  0  0
   23.7698   19.9775    0.0000 O   0  0  0  0  0  0  0  0  0  0  0  0
   23.8294   16.6434    0.0000 O   0  0  0  0  0  0  0  0  0  0  0  0
   18.4589    5.2336    0.0000 O   0  0  0  0  0  0  0  0  0  0  0  0
   22.4091   12.7119    0.0000 O   0  0  0  0  0  0  0  0  0  0  0  0
   17.0250   25.1252    0.0000 O   0  0  0  0  0  0  0  0  0  0  0  0
   25.8533  -15.0768    0.0000 O   0  0  0  0  0  0  0  0  0  0  0  0
   27.2377   -1.0254    0.0000 O   0  0  0  0  0  0  0  0  0  0  0  0
   29.1388   -4.5224    0.0000 O   0  0  0  0  0  0  0  0  0  0  0  0
   20.8206    8.8454    0.0000 O   0  0  0  0  0  0  0  0  0  0  0  0
   23.4211  -12.9538    0.0000 O   0  0  0  0  0  0  0  0  0  0  0  0
   24.3229   -8.4413    0.0000 O   0  0  0  0  0  0  0  0  0  0  0  0
   13.9809   24.9891    0.0000 O   0  0  0  0  0  0  0  0  0  0  0  0
   25.3203   -3.3192    0.0000 O   0  0  0  0  0  0  0  0  0  0  0  0
   20.7661  -19.6352    0.0000 O   0  0  0  0  0  0  0  0  0  0  0  0
   23.2094    0.5225    0.0000 O   0  0  0  0  0  0  0  0  0  0  0  0
   20.2259    0.3299    0.0000 O   0  0  0  0  0  0  0  0  0  0  0  0
   11.5687   22.6023    0.0000 O   0  0  0  0  0  0  0  0  0  0  0  0
   21.3559    4.4948    0.0000 O   0  0  0  0  0  0  0  0  0  0  0  0
   21.4641  -13.9042    0.0000 O   0  0  0  0  0  0  0  0  0  0  0  0
   23.5091  -16.1722    0.0000 O   0  0  0  0  0  0  0  0  0  0  0  0
   26.2846   -5.9490    0.0000 O   0  0  0  0  0  0  0  0  0  0  0  0
   22.3070   -7.6228    0.0000 O   0  0  0  0  0  0  0  0  0  0  0  0
   22.6307  -23.6634    0.0000 O   0  0  0  0  0  0  0  0  0  0  0  0
    7.0131   28.2326    0.0000 O   0  0  0  0  0  0  0  0  0  0  0  0
   22.8819   -9.8282    0.0000 O   0  0  0  0  0  0  0  0  0  0  0  0
   23.3203  -20.0506    0.0000 O   0  0  0  0  0  0  0  0  0  0  0  0
   10.4648   26.7742    0.0000 O   0  0  0  0  0  0  0  0  0  0  0  0
   25.1733  -17.5734    0.0000 O   0  0  0  0  0  0  0  0  0  0  0  0
   24.7986  -13.2742    0.0000 O   0  0  0  0  0  0  0  0  0  0  0  0
    8.5616   26.1595    0.0000 O   0  0  0  0  0  0  0  0  0  0  0  0
   22.1006  -21.8522    0.0000 O   0  0  0  0  0  0  0  0  0  0  0  0
   25.1879  -23.2692    0.0000 O   0  0  0  0  0  0  0  0  0  0  0  0
   22.9545  -18.0937    0.0000 O   0  0  0  0  0  0  0  0  0  0  0  0
   28.2780  -25.9458    0.0000 O   0  0  0  0  0  0  0  0  0  0  0  0
   22.5108   20.6217    0.0000 O   0  0  0  0  0  0  0  0  0  0  0  0
   21.3918   24.7443    0.0000 O   0  0  0  0  0  0  0  0  0  0  0  0
    6.4328   25.7109    0.0000 O   0  0  0  0  0  0  0  0  0  0  0  0
   22.0991   17.6464    0.0000 O   0  0  0  0  0  0  0  0  0  0  0  0
   24.5846  -25.3594    0.0000 O   0  0  0  0  0  0  0  0  0  0  0  0
   24.3647   12.2927    0.0000 O   0  0  0  0  0  0  0  0  0  0  0  0
   24.2355  -21.5211    0.0000 O   0  0  0  0  0  0  0  0  0  0  0  0
   19.4539    8.4818    0.0000 O   0  0  0  0  0  0  0  0  0  0  0  0
   15.7660   25.7694    0.0000 O   0  0  0  0  0  0  0  0  0  0  0  0
   26.6611   -1.8352    0.0000 O   0  0  0  0  0  0  0  0  0  0  0  0
   19.4003    4.9140    0.0000 O   0  0  0  0  0  0  0  0  0  0  0  0
   12.1552   25.8057    0.0000 O   0  0  0  0  0  0  0  0  0  0  0  0
   22.3175   -0.5750    0.0000 O   0  0  0  0  0  0  0  0  0  0  0  0
   25.0197   -4.4885    0.0000 O   0  0  0  0  0  0  0  0  0  0  0  0
    8.7945   29.3227    0.0000 O   0  0  0  0  0  0  0  0  0  0  0  0
   26.3869  -27.7119    0.0000 O   0  0  0  0  0  0  0  0  0  0  0  0
   26.7177  -24.5574    0.0000 O   0  0  0  0  0  0  0  0  0  0  0  0
   22.9089   -8.4141    0.0000 O   0  0  0  0  0  0  0  0  0  0  0  0
    7.5686   32.8637    0.0000 O   0  0  0  0  0  0  0  0  0  0  0  0
   23.7416  -11.5763    0.0000 O   0  0  0  0  0  0  0  0  0  0  0  0
   28.4026  -28.5304    0.0000 O   0  0  0  0  0  0  0  0  0  0  0  0
    7.0642   30.3257    0.0000 O   0  0  0  0  0  0  0  0  0  0  0  0
   22.2710  -16.8556    0.0000 O   0  0  0  0  0  0  0  0  0  0  0  0
   24.6733  -19.6395    0.0000 O   0  0  0  0  0  0  0  0  0  0  0  0
    9.8206   25.5153    0.0000 O   0  0  0  0  0  0  0  0  0  0  0  0
    5.3064   31.6076    0.0000 O   0  0  0  0  0  0  0  0  0  0  0  0
   18.2545    3.4832    0.0000 O   0  0  0  0  0  0  0  0  0  0  0  0
   24.8483  -31.8531    0.0000 O   0  0  0  0  0  0  0  0  0  0  0  0
   26.5969  -23.1484    0.0000 O   0  0  0  0  0  0  0  0  0  0  0  0
   26.4532  -29.7108    0.0000 O   0  0  0  0  0  0  0  0  0  0  0  0
   23.5782   -4.1274    0.0000 O   0  0  0  0  0  0  0  0  0  0  0  0
   27.6717  -14.8189    0.0000 O   0  0  0  0  0  0  0  0  0  0  0  0
   29.5417   23.4684    0.0000 O   0  0  0  0  0  0  0  0  0  0  0  0
   16.1844   18.5907    0.0000 O   0  0  0  0  0  0  0  0  0  0  0  0
    8.4309   30.6894    0.0000 O   0  0  0  0  0  0  0  0  0  0  0  0
   18.9463  -19.8822    0.0000 O   0  0  0  0  0  0  0  0  0  0  0  0
   26.9134    7.9039    0.0000 O   0  0  0  0  0  0  0  0  0  0  0  0
   26.8025  -33.5492    0.0000 O   0  0  0  0  0  0  0  0  0  0  0  0
   29.9859    2.6615    0.0000 O   0  0  0  0  0  0  0  0  0  0  0  0
   30.7493   -8.8296    0.0000 O   0  0  0  0  0  0  0  0  0  0  0  0
    9.5708   32.2693    0.0000 O   0  0  0  0  0  0  0  0  0  0  0  0
   27.4058  -31.4590    0.0000 O   0  0  0  0  0  0  0  0  0  0  0  0
   23.8446  -26.4027    0.0000 O   0  0  0  0  0  0  0  0  0  0  0  0
   25.4206  -28.7446    0.0000 O   0  0  0  0  0  0  0  0  0  0  0  0
    5.5323   29.3191    0.0000 O   0  0  0  0  0  0  0  0  0  0  0  0
   15.6761    1.1698    0.0000 O   0  0  0  0  0  0  0  0  0  0  0  0
   29.7996  -17.5523    0.0000 O   0  0  0  0  0  0  0  0  0  0  0  0
   29.6801  -28.5939    0.0000 O   0  0  0  0  0  0  0  0  0  0  0  0
   17.6431  -23.0919    0.0000 O   0  0  0  0  0  0  0  0  0  0  0  0
   20.7285  -27.9160    0.0000 O   0  0  0  0  0  0  0  0  0  0  0  0
    7.3852   34.6911    0.0000 O   0  0  0  0  0  0  0  0  0  0  0  0
   26.0623  -34.5924    0.0000 O   0  0  0  0  0  0  0  0  0  0  0  0
    4.2231   36.1056    0.0000 O   0  0  0  0  0  0  0  0  0  0  0  0
   22.9463  -36.1056    0.0000 O   0  0  0  0  0  0  0  0  0  0  0  0
   26.2066   23.6355    0.0000 N   0  0  0  0  0  0  0  0  0  0  0  0
   17.9967   21.3955    0.0000 N   0  0  0  0  0  0  0  0  0  0  0  0
   26.8117   16.9165    0.0000 N   0  0  0  0  0  0  0  0  0  0  0  0
   20.3832   14.9175    0.0000 N   0  0  0  0  0  0  0  0  0  0  0  0
   23.8029    9.1185    0.0000 N   0  0  0  0  0  0  0  0  0  0  0  0
   13.3647   28.7937    0.0000 N   0  0  0  0  0  0  0  0  0  0  0  0
   17.3744    7.1195    0.0000 N   0  0  0  0  0  0  0  0  0  0  0  0
   27.0141    1.1387    0.0000 N   0  0  0  0  0  0  0  0  0  0  0  0
   28.3203   -6.5382    0.0000 N   0  0  0  0  0  0  0  0  0  0  0  0
    9.4415   23.0583    0.0000 N   0  0  0  0  0  0  0  0  0  0  0  0
   19.9555  -12.3366    0.0000 N   0  0  0  0  0  0  0  0  0  0  0  0
   18.6117    1.7884    0.0000 N   0  0  0  0  0  0  0  0  0  0  0  0
   22.4624   -5.4525    0.0000 N   0  0  0  0  0  0  0  0  0  0  0  0
   27.0201  -16.4237    0.0000 N   0  0  0  0  0  0  0  0  0  0  0  0
   20.0102  -21.2489    0.0000 N   0  0  0  0  0  0  0  0  0  0  0  0
   22.4105  -25.4317    0.0000 N   0  0  0  0  0  0  0  0  0  0  0  0
    5.3483   27.5968    0.0000 N   0  0  0  0  0  0  0  0  0  0  0  0
   27.6004   24.4402    0.0000 N   0  0  0  0  0  0  0  0  0  0  0  0
   17.9967   19.7860    0.0000 N   0  0  0  0  0  0  0  0  0  0  0  0
   28.3424   16.4191    0.0000 N   0  0  0  0  0  0  0  0  0  0  0  0
   24.7444    7.8132    0.0000 N   0  0  0  0  0  0  0  0  0  0  0  0
   18.8089   14.5828    0.0000 N   0  0  0  0  0  0  0  0  0  0  0  0
   12.7152   30.2663    0.0000 N   0  0  0  0  0  0  0  0  0  0  0  0
   15.9063    7.7792    0.0000 N   0  0  0  0  0  0  0  0  0  0  0  0
   27.8188    2.5325    0.0000 N   0  0  0  0  0  0  0  0  0  0  0  0
   26.9436   21.9684    0.0000 N   0  0  0  0  0  0  0  0  0  0  0  0
   28.7043   -8.1012    0.0000 N   0  0  0  0  0  0  0  0  0  0  0  0
   16.1844   21.5907    0.0000 N   0  0  0  0  0  0  0  0  0  0  0  0
   25.1585   10.3370    0.0000 N   0  0  0  0  0  0  0  0  0  0  0  0
   26.0660   15.2533    0.0000 N   0  0  0  0  0  0  0  0  0  0  0  0
   20.1974   16.7307    0.0000 N   0  0  0  0  0  0  0  0  0  0  0  0
    8.6367   21.6645    0.0000 N   0  0  0  0  0  0  0  0  0  0  0  0
   28.4859    0.0634    0.0000 N   0  0  0  0  0  0  0  0  0  0  0  0
   29.8039  -26.8662    0.0000 N   0  0  0  0  0  0  0  0  0  0  0  0
   11.7854   27.8837    0.0000 N   0  0  0  0  0  0  0  0  0  0  0  0
   30.0337   -5.9162    0.0000 N   0  0  0  0  0  0  0  0  0  0  0  0
   16.8096    5.3865    0.0000 N   0  0  0  0  0  0  0  0  0  0  0  0
   18.3713  -12.0515    0.0000 N   0  0  0  0  0  0  0  0  0  0  0  0
   16.9653    2.3265    0.0000 N   0  0  0  0  0  0  0  0  0  0  0  0
    7.9696   24.1336    0.0000 N   0  0  0  0  0  0  0  0  0  0  0  0
   19.8269  -14.1548    0.0000 N   0  0  0  0  0  0  0  0  0  0  0  0
   28.6757   21.9684    0.0000 N   0  0  0  0  0  0  0  0  0  0  0  0
   15.3184   20.0907    0.0000 N   0  0  0  0  0  0  0  0  0  0  0  0
   26.7383    9.6271    0.0000 N   0  0  0  0  0  0  0  0  0  0  0  0
   28.7357  -16.1856    0.0000 N   0  0  0  0  0  0  0  0  0  0  0  0
    5.9822   33.6755    0.0000 N   0  0  0  0  0  0  0  0  0  0  0  0
   29.9859    0.9295    0.0000 N   0  0  0  0  0  0  0  0  0  0  0  0
   21.8730   -3.8236    0.0000 N   0  0  0  0  0  0  0  0  0  0  0  0
   31.2325   -7.1663    0.0000 N   0  0  0  0  0  0  0  0  0  0  0  0
   18.2947  -21.4870    0.0000 N   0  0  0  0  0  0  0  0  0  0  0  0
   27.2250   13.9661    0.0000 N   0  0  0  0  0  0  0  0  0  0  0  0
   18.5501   17.2659    0.0000 N   0  0  0  0  0  0  0  0  0  0  0  0
   10.3877   28.9066    0.0000 N   0  0  0  0  0  0  0  0  0  0  0  0
   15.0865    5.2114    0.0000 N   0  0  0  0  0  0  0  0  0  0  0  0
   22.2867  -27.1593    0.0000 N   0  0  0  0  0  0  0  0  0  0  0  0
   28.9192   14.3262    0.0000 N   0  0  0  0  0  0  0  0  0  0  0  0
   17.2630   16.1070    0.0000 N   0  0  0  0  0  0  0  0  0  0  0  0
    6.4696   23.2675    0.0000 N   0  0  0  0  0  0  0  0  0  0  0  0
   10.5747   30.6285    0.0000 N   0  0  0  0  0  0  0  0  0  0  0  0
   18.1971  -14.7415    0.0000 N   0  0  0  0  0  0  0  0  0  0  0  0
   14.0732    6.6162    0.0000 N   0  0  0  0  0  0  0  0  0  0  0  0
    3.9488   28.6173    0.0000 N   0  0  0  0  0  0  0  0  0  0  0  0
   27.8097   20.4684    0.0000 N   0  0  0  0  0  0  0  0  0  0  0  0
   24.6281  -33.6214    0.0000 N   0  0  0  0  0  0  0  0  0  0  0  0
   14.4524   21.5907    0.0000 N   0  0  0  0  0  0  0  0  0  0  0  0
   26.5632   11.3502    0.0000 N   0  0  0  0  0  0  0  0  0  0  0  0
    6.4696   21.5355    0.0000 N   0  0  0  0  0  0  0  0  0  0  0  0
   29.9859   -0.8026    0.0000 N   0  0  0  0  0  0  0  0  0  0  0  0
   16.8741  -13.6236    0.0000 N   0  0  0  0  0  0  0  0  0  0  0  0
   31.7157   -5.5030    0.0000 N   0  0  0  0  0  0  0  0  0  0  0  0
   20.1678   -3.5199    0.0000 N   0  0  0  0  0  0  0  0  0  0  0  0
   31.2382  -27.8373    0.0000 N   0  0  0  0  0  0  0  0  0  0  0  0
    5.8042   35.3984    0.0000 N   0  0  0  0  0  0  0  0  0  0  0  0
    2.3653   27.9156    0.0000 N   0  0  0  0  0  0  0  0  0  0  0  0
   24.5042  -35.3490    0.0000 N   0  0  0  0  0  0  0  0  0  0  0  0
   32.7962  -27.0807    0.0000 N   0  0  0  0  0  0  0  0  0  0  0  0
   23.8254   22.6227    0.0000 C   0  0  0  0  0  0  0  0  0  0  0  0
   19.2606   23.6534    0.0000 C   0  0  0  0  0  0  0  0  0  0  0  0
   24.4657   18.0083    0.0000 C   0  0  0  0  0  0  0  0  0  0  0  0
   22.8545   14.1505    0.0000 C   0  0  0  0  0  0  0  0  0  0  0  0
   24.8198   22.5164    0.0000 C   0  0  0  0  0  0  0  0  0  0  0  0
   21.4569   10.2104    0.0000 C   0  0  0  0  0  0  0  0  0  0  0  0
   23.6192   23.6012    0.0000 C   0  0  0  0  0  0  0  0  0  0  0  0
   19.2589   22.6534    0.0000 C   0  0  0  0  0  0  0  0  0  0  0  0
   25.0521   17.1983    0.0000 C   0  0  0  0  0  0  0  0  0  0  0  0
   25.0549   18.8163    0.0000 C   0  0  0  0  0  0  0  0  0  0  0  0
   18.3101   23.9640    0.0000 C   0  0  0  0  0  0  0  0  0  0  0  0
   21.8760   13.9443    0.0000 C   0  0  0  0  0  0  0  0  0  0  0  0
   22.9608   15.1449    0.0000 C   0  0  0  0  0  0  0  0  0  0  0  0
   22.0433    9.4003    0.0000 C   0  0  0  0  0  0  0  0  0  0  0  0
   22.0461   11.0184    0.0000 C   0  0  0  0  0  0  0  0  0  0  0  0
   15.4324   27.2380    0.0000 C   0  0  0  0  0  0  0  0  0  0  0  0
   25.2281   23.4293    0.0000 C   0  0  0  0  0  0  0  0  0  0  0  0
   18.3073   22.3460    0.0000 C   0  0  0  0  0  0  0  0  0  0  0  0
   26.0037   17.5056    0.0000 C   0  0  0  0  0  0  0  0  0  0  0  0
   19.8457    6.3526    0.0000 C   0  0  0  0  0  0  0  0  0  0  0  0
   21.3775   14.8112    0.0000 C   0  0  0  0  0  0  0  0  0  0  0  0
   15.0273   28.1522    0.0000 C   0  0  0  0  0  0  0  0  0  0  0  0
   22.9949    9.7077    0.0000 C   0  0  0  0  0  0  0  0  0  0  0  0
   25.4583   -0.9290    0.0000 C   0  0  0  0  0  0  0  0  0  0  0  0
   14.6881   26.5701    0.0000 C   0  0  0  0  0  0  0  0  0  0  0  0
   18.8672    6.1464    0.0000 C   0  0  0  0  0  0  0  0  0  0  0  0
   19.9519    7.3469    0.0000 C   0  0  0  0  0  0  0  0  0  0  0  0
   27.4032   -4.1186    0.0000 C   0  0  0  0  0  0  0  0  0  0  0  0
   26.3726   -0.5239    0.0000 C   0  0  0  0  0  0  0  0  0  0  0  0
   24.7905   -0.1847    0.0000 C   0  0  0  0  0  0  0  0  0  0  0  0
   14.0326   28.0494    0.0000 C   0  0  0  0  0  0  0  0  0  0  0  0
   28.1681   -4.7627    0.0000 C   0  0  0  0  0  0  0  0  0  0  0  0
   26.5542   -4.6470    0.0000 C   0  0  0  0  0  0  0  0  0  0  0  0
   18.3687    7.0133    0.0000 C   0  0  0  0  0  0  0  0  0  0  0  0
   26.2698    0.4708    0.0000 C   0  0  0  0  0  0  0  0  0  0  0  0
   21.1990    1.8227    0.0000 C   0  0  0  0  0  0  0  0  0  0  0  0
   27.7919   -5.6892    0.0000 C   0  0  0  0  0  0  0  0  0  0  0  0
   11.6650   24.3817    0.0000 C   0  0  0  0  0  0  0  0  0  0  0  0
   20.9928    2.8012    0.0000 C   0  0  0  0  0  0  0  0  0  0  0  0
   20.3321    1.3242    0.0000 C   0  0  0  0  0  0  0  0  0  0  0  0
   11.1636   23.5166    0.0000 C   0  0  0  0  0  0  0  0  0  0  0  0
   22.5391  -12.4828    0.0000 C   0  0  0  0  0  0  0  0  0  0  0  0
   10.9972   25.1260    0.0000 C   0  0  0  0  0  0  0  0  0  0  0  0
   21.6395  -12.9197    0.0000 C   0  0  0  0  0  0  0  0  0  0  0  0
   22.4016  -11.4923    0.0000 C   0  0  0  0  0  0  0  0  0  0  0  0
   10.1858   23.7262    0.0000 C   0  0  0  0  0  0  0  0  0  0  0  0
   19.5902    1.9946    0.0000 C   0  0  0  0  0  0  0  0  0  0  0  0
   24.0827   -7.4706    0.0000 C   0  0  0  0  0  0  0  0  0  0  0  0
   22.7064   24.0095    0.0000 C   0  0  0  0  0  0  0  0  0  0  0  0
   24.7476   19.7679    0.0000 C   0  0  0  0  0  0  0  0  0  0  0  0
   18.0028   24.9156    0.0000 C   0  0  0  0  0  0  0  0  0  0  0  0
   23.8277   15.6434    0.0000 C   0  0  0  0  0  0  0  0  0  0  0  0
   20.9461  -12.1992    0.0000 C   0  0  0  0  0  0  0  0  0  0  0  0
   24.7268   -6.7057    0.0000 C   0  0  0  0  0  0  0  0  0  0  0  0
   21.7387   11.9700    0.0000 C   0  0  0  0  0  0  0  0  0  0  0  0
   23.1560   -7.0943    0.0000 C   0  0  0  0  0  0  0  0  0  0  0  0
   20.8188    7.8454    0.0000 C   0  0  0  0  0  0  0  0  0  0  0  0
   24.4798  -15.9319    0.0000 C   0  0  0  0  0  0  0  0  0  0  0  0
   14.7909   25.5754    0.0000 C   0  0  0  0  0  0  0  0  0  0  0  0
   23.2274   -6.0967    0.0000 C   0  0  0  0  0  0  0  0  0  0  0  0
   23.7958   -0.2875    0.0000 C   0  0  0  0  0  0  0  0  0  0  0  0
   24.8560  -15.0053    0.0000 C   0  0  0  0  0  0  0  0  0  0  0  0
   25.2448  -16.5760    0.0000 C   0  0  0  0  0  0  0  0  0  0  0  0
   25.6277   -4.2708    0.0000 C   0  0  0  0  0  0  0  0  0  0  0  0
   26.0935  -16.0475    0.0000 C   0  0  0  0  0  0  0  0  0  0  0  0
   21.6632    3.5432    0.0000 C   0  0  0  0  0  0  0  0  0  0  0  0
   22.3208  -20.0838    0.0000 C   0  0  0  0  0  0  0  0  0  0  0  0
   21.7064  -19.2948    0.0000 C   0  0  0  0  0  0  0  0  0  0  0  0
   21.7601  -20.9119    0.0000 C   0  0  0  0  0  0  0  0  0  0  0  0
   11.2068   26.1038    0.0000 C   0  0  0  0  0  0  0  0  0  0  0  0
   23.1222  -10.7989    0.0000 C   0  0  0  0  0  0  0  0  0  0  0  0
   25.7241   -6.7771    0.0000 C   0  0  0  0  0  0  0  0  0  0  0  0
   20.7993  -20.6346    0.0000 C   0  0  0  0  0  0  0  0  0  0  0  0
    7.8197   26.8299    0.0000 C   0  0  0  0  0  0  0  0  0  0  0  0
   24.2476  -23.6096    0.0000 C   0  0  0  0  0  0  0  0  0  0  0  0
    6.8412   26.6237    0.0000 C   0  0  0  0  0  0  0  0  0  0  0  0
   23.4198  -23.0490    0.0000 C   0  0  0  0  0  0  0  0  0  0  0  0
   23.9706  -24.5704    0.0000 C   0  0  0  0  0  0  0  0  0  0  0  0
    7.9259   27.8242    0.0000 C   0  0  0  0  0  0  0  0  0  0  0  0
   24.3276  -14.1564    0.0000 C   0  0  0  0  0  0  0  0  0  0  0  0
    6.3426   27.4906    0.0000 C   0  0  0  0  0  0  0  0  0  0  0  0
   22.9711  -24.6036    0.0000 C   0  0  0  0  0  0  0  0  0  0  0  0
   26.9436   22.9684    0.0000 C   0  0  0  0  0  0  0  0  0  0  0  0
   17.0504   21.0907    0.0000 C   0  0  0  0  0  0  0  0  0  0  0  0
   26.8091   15.9224    0.0000 C   0  0  0  0  0  0  0  0  0  0  0  0
   24.7486    9.4249    0.0000 C   0  0  0  0  0  0  0  0  0  0  0  0
   19.8884   15.7796    0.0000 C   0  0  0  0  0  0  0  0  0  0  0  0
   21.9838  -18.3340    0.0000 C   0  0  0  0  0  0  0  0  0  0  0  0
   26.6117   24.5433    0.0000 C   0  0  0  0  0  0  0  0  0  0  0  0
   12.3760   28.6907    0.0000 C   0  0  0  0  0  0  0  0  0  0  0  0
   18.5803   20.5907    0.0000 C   0  0  0  0  0  0  0  0  0  0  0  0
   27.7574   17.2228    0.0000 C   0  0  0  0  0  0  0  0  0  0  0  0
   16.7085    6.3814    0.0000 C   0  0  0  0  0  0  0  0  0  0  0  0
   27.9859    0.9295    0.0000 C   0  0  0  0  0  0  0  0  0  0  0  0
   19.7174   14.1793    0.0000 C   0  0  0  0  0  0  0  0  0  0  0  0
   23.8003    8.1244    0.0000 C   0  0  0  0  0  0  0  0  0  0  0  0
   29.3119   -6.6084    0.0000 C   0  0  0  0  0  0  0  0  0  0  0  0
   13.5739   29.7656    0.0000 C   0  0  0  0  0  0  0  0  0  0  0  0
   23.3866  -22.0496    0.0000 C   0  0  0  0  0  0  0  0  0  0  0  0
   27.2358  -27.1835    0.0000 C   0  0  0  0  0  0  0  0  0  0  0  0
   16.8795    7.9817    0.0000 C   0  0  0  0  0  0  0  0  0  0  0  0
   27.3073  -26.1860    0.0000 C   0  0  0  0  0  0  0  0  0  0  0  0
   26.9110    2.1274    0.0000 C   0  0  0  0  0  0  0  0  0  0  0  0
   28.1623  -27.5597    0.0000 C   0  0  0  0  0  0  0  0  0  0  0  0
   27.9455   -7.4589    0.0000 C   0  0  0  0  0  0  0  0  0  0  0  0
    8.7928   28.3228    0.0000 C   0  0  0  0  0  0  0  0  0  0  0  0
    8.4696   23.2675    0.0000 C   0  0  0  0  0  0  0  0  0  0  0  0
   27.8097   23.4684    0.0000 C   0  0  0  0  0  0  0  0  0  0  0  0
   24.8168   20.7844    0.0000 C   0  0  0  0  0  0  0  0  0  0  0  0
   17.0504   20.0907    0.0000 C   0  0  0  0  0  0  0  0  0  0  0  0
   20.9812   22.4693    0.0000 C   0  0  0  0  0  0  0  0  0  0  0  0
   25.4093   15.5035    0.0000 C   0  0  0  0  0  0  0  0  0  0  0  0
   28.8065  -26.7948    0.0000 C   0  0  0  0  0  0  0  0  0  0  0  0
   20.4730   12.9287    0.0000 C   0  0  0  0  0  0  0  0  0  0  0  0
   19.4880  -13.2139    0.0000 C   0  0  0  0  0  0  0  0  0  0  0  0
   27.7602   15.6134    0.0000 C   0  0  0  0  0  0  0  0  0  0  0  0
   25.3335    8.6138    0.0000 C   0  0  0  0  0  0  0  0  0  0  0  0
   22.4005    7.7055    0.0000 C   0  0  0  0  0  0  0  0  0  0  0  0
   18.9102   15.5717    0.0000 C   0  0  0  0  0  0  0  0  0  0  0  0
    9.5445   22.0696    0.0000 C   0  0  0  0  0  0  0  0  0  0  0  0
   15.0303   29.8843    0.0000 C   0  0  0  0  0  0  0  0  0  0  0  0
   11.9724   29.6056    0.0000 C   0  0  0  0  0  0  0  0  0  0  0  0
   17.4642    5.1307    0.0000 C   0  0  0  0  0  0  0  0  0  0  0  0
   19.2667  -11.6197    0.0000 C   0  0  0  0  0  0  0  0  0  0  0  0
   15.7964    6.7912    0.0000 C   0  0  0  0  0  0  0  0  0  0  0  0
   28.4859    1.7955    0.0000 C   0  0  0  0  0  0  0  0  0  0  0  0
   28.1046   -0.5269    0.0000 C   0  0  0  0  0  0  0  0  0  0  0  0
   17.9438    2.5327    0.0000 C   0  0  0  0  0  0  0  0  0  0  0  0
   18.3010    0.8379    0.0000 C   0  0  0  0  0  0  0  0  0  0  0  0
   29.5505   -7.5795    0.0000 C   0  0  0  0  0  0  0  0  0  0  0  0
   29.4161   -3.5616    0.0000 C   0  0  0  0  0  0  0  0  0  0  0  0
    7.0659   31.3257    0.0000 C   0  0  0  0  0  0  0  0  0  0  0  0
   26.5424  -25.5419    0.0000 C   0  0  0  0  0  0  0  0  0  0  0  0
   19.3117   -0.0753    0.0000 C   0  0  0  0  0  0  0  0  0  0  0  0
   10.9795   21.7943    0.0000 C   0  0  0  0  0  0  0  0  0  0  0  0
    6.2579   31.9149    0.0000 C   0  0  0  0  0  0  0  0  0  0  0  0
    7.9696   22.4015    0.0000 C   0  0  0  0  0  0  0  0  0  0  0  0
   21.5221   -5.7929    0.0000 C   0  0  0  0  0  0  0  0  0  0  0  0
   20.5239  -14.2446    0.0000 C   0  0  0  0  0  0  0  0  0  0  0  0
    7.8760   31.9121    0.0000 C   0  0  0  0  0  0  0  0  0  0  0  0
   18.5037  -13.0368    0.0000 C   0  0  0  0  0  0  0  0  0  0  0  0
   22.6378   -4.4678    0.0000 C   0  0  0  0  0  0  0  0  0  0  0  0
    6.5686   32.8654    0.0000 C   0  0  0  0  0  0  0  0  0  0  0  0
   27.8092  -15.8094    0.0000 C   0  0  0  0  0  0  0  0  0  0  0  0
   27.1575  -17.4142    0.0000 C   0  0  0  0  0  0  0  0  0  0  0  0
   22.3403   -8.6223    0.0000 C   0  0  0  0  0  0  0  0  0  0  0  0
   28.6757   22.9684    0.0000 C   0  0  0  0  0  0  0  0  0  0  0  0
   16.1844   19.5907    0.0000 C   0  0  0  0  0  0  0  0  0  0  0  0
   19.0838  -20.8728    0.0000 C   0  0  0  0  0  0  0  0  0  0  0  0
   20.1477  -22.2394    0.0000 C   0  0  0  0  0  0  0  0  0  0  0  0
   26.3284    8.7149    0.0000 C   0  0  0  0  0  0  0  0  0  0  0  0
   24.2737  -18.0103    0.0000 C   0  0  0  0  0  0  0  0  0  0  0  0
   27.9681   14.6352    0.0000 C   0  0  0  0  0  0  0  0  0  0  0  0
   18.2411   16.3149    0.0000 C   0  0  0  0  0  0  0  0  0  0  0  0
   17.3225    0.6317    0.0000 C   0  0  0  0  0  0  0  0  0  0  0  0
   10.9783   29.7136    0.0000 C   0  0  0  0  0  0  0  0  0  0  0  0
   29.4859    1.7955    0.0000 C   0  0  0  0  0  0  0  0  0  0  0  0
   14.9854    6.2063    0.0000 C   0  0  0  0  0  0  0  0  0  0  0  0
   30.5108   -7.8585    0.0000 C   0  0  0  0  0  0  0  0  0  0  0  0
   21.4564  -22.6171    0.0000 C   0  0  0  0  0  0  0  0  0  0  0  0
   27.8097   21.4684    0.0000 C   0  0  0  0  0  0  0  0  0  0  0  0
   22.8473  -26.3313    0.0000 C   0  0  0  0  0  0  0  0  0  0  0  0
   21.4130  -25.3602    0.0000 C   0  0  0  0  0  0  0  0  0  0  0  0
   15.3184   21.0907    0.0000 C   0  0  0  0  0  0  0  0  0  0  0  0
    4.7591   26.7888    0.0000 C   0  0  0  0  0  0  0  0  0  0  0  0
   26.1533   10.4381    0.0000 C   0  0  0  0  0  0  0  0  0  0  0  0
    4.9432   28.5111    0.0000 C   0  0  0  0  0  0  0  0  0  0  0  0
   20.7572   -5.1487    0.0000 C   0  0  0  0  0  0  0  0  0  0  0  0
   16.6546    1.3760    0.0000 C   0  0  0  0  0  0  0  0  0  0  0  0
   25.6374  -31.2388    0.0000 C   0  0  0  0  0  0  0  0  0  0  0  0
    6.9696   22.4015    0.0000 C   0  0  0  0  0  0  0  0  0  0  0  0
    5.4381   25.6080    0.0000 C   0  0  0  0  0  0  0  0  0  0  0  0
    8.8265   31.6015    0.0000 C   0  0  0  0  0  0  0  0  0  0  0  0
   26.4655  -31.7994    0.0000 C   0  0  0  0  0  0  0  0  0  0  0  0
   29.4859    0.0634    0.0000 C   0  0  0  0  0  0  0  0  0  0  0  0
   24.2084  -26.2860    0.0000 C   0  0  0  0  0  0  0  0  0  0  0  0
   17.8583  -13.8006    0.0000 C   0  0  0  0  0  0  0  0  0  0  0  0
   26.1882  -32.7602    0.0000 C   0  0  0  0  0  0  0  0  0  0  0  0
   28.0841  -17.7904    0.0000 C   0  0  0  0  0  0  0  0  0  0  0  0
   30.9940   -6.1952    0.0000 C   0  0  0  0  0  0  0  0  0  0  0  0
   26.2739   14.2751    0.0000 C   0  0  0  0  0  0  0  0  0  0  0  0
   19.5283   17.4738    0.0000 C   0  0  0  0  0  0  0  0  0  0  0  0
   25.1887  -32.7933    0.0000 C   0  0  0  0  0  0  0  0  0  0  0  0
   10.7913   27.9917    0.0000 C   0  0  0  0  0  0  0  0  0  0  0  0
   15.9986    4.8015    0.0000 C   0  0  0  0  0  0  0  0  0  0  0  0
   19.3587  -22.8537    0.0000 C   0  0  0  0  0  0  0  0  0  0  0  0
   20.9326   -4.1640    0.0000 C   0  0  0  0  0  0  0  0  0  0  0  0
   25.6042  -30.2393    0.0000 C   0  0  0  0  0  0  0  0  0  0  0  0
   28.8732  -17.1761    0.0000 C   0  0  0  0  0  0  0  0  0  0  0  0
   30.3645  -26.0382    0.0000 C   0  0  0  0  0  0  0  0  0  0  0  0
   30.2407  -27.7658    0.0000 C   0  0  0  0  0  0  0  0  0  0  0  0
    6.9696   24.1336    0.0000 C   0  0  0  0  0  0  0  0  0  0  0  0
   20.8523  -26.1883    0.0000 C   0  0  0  0  0  0  0  0  0  0  0  0
   18.4322  -22.4776    0.0000 C   0  0  0  0  0  0  0  0  0  0  0  0
    3.7648   26.8951    0.0000 C   0  0  0  0  0  0  0  0  0  0  0  0
   19.1814  -14.9186    0.0000 C   0  0  0  0  0  0  0  0  0  0  0  0
   27.6821  -29.2238    0.0000 C   0  0  0  0  0  0  0  0  0  0  0  0
   21.2892  -27.0879    0.0000 C   0  0  0  0  0  0  0  0  0  0  0  0
    3.3596   27.8093    0.0000 C   0  0  0  0  0  0  0  0  0  0  0  0
    6.3905   34.5883    0.0000 C   0  0  0  0  0  0  0  0  0  0  0  0
    4.9875   33.5727    0.0000 C   0  0  0  0  0  0  0  0  0  0  0  0
   31.3620  -26.1096    0.0000 C   0  0  0  0  0  0  0  0  0  0  0  0
    4.5644   32.2780    0.0000 C   0  0  0  0  0  0  0  0  0  0  0  0
   31.7988  -27.0092    0.0000 C   0  0  0  0  0  0  0  0  0  0  0  0
    4.4011   34.3827    0.0000 C   0  0  0  0  0  0  0  0  0  0  0  0
   25.0649  -34.5210    0.0000 C   0  0  0  0  0  0  0  0  0  0  0  0
   23.6307  -33.5499    0.0000 C   0  0  0  0  0  0  0  0  0  0  0  0
    4.8094   35.2955    0.0000 C   0  0  0  0  0  0  0  0  0  0  0  0
   27.7930  -33.4118    0.0000 C   0  0  0  0  0  0  0  0  0  0  0  0
   23.0701  -34.3780    0.0000 C   0  0  0  0  0  0  0  0  0  0  0  0
   23.5069  -35.2775    0.0000 C   0  0  0  0  0  0  0  0  0  0  0  0
  1 20  2  0
  2 21  2  0
  3 22  2  0
  4 23  2  0
  5 24  2  0
  6 25  2  0
  7 26  2  0
  8 27  2  0
  9 28  2  0
 10 29  2  0
 11 30  2  0
 12 31  2  0
 13 32  2  0
 14 34  1  0
 15 33  2  0
 16 35  2  0
 17 36  2  0
 18 37  2  0
 19 38  2  0
 20 48  1  0
 20 70  1  0
 20104  1  0
 21 49  1  0
 21 68  1  0
 21105  1  0
 22 50  1  0
 22 71  1  0
 22107  1  0
 23 51  1  0
 23 73  1  0
 23109  1  0
 24 52  1  0
 24 78  1  0
 24111  1  0
 25 55  1  0
 25 74  1  0
 25112  1  0
 26 58  1  0
 26 82  1  0
 26113  1  0
 27 57  1  0
 27 87  1  0
 27114  1  0
 28 67  1  0
 28 81  1  0
 28115  1  0
 29 66  1  0
 29 84  1  0
 29116  1  0
 30 63  1  0
 30 90  1  0
 30117  1  0
 31 80  1  0
 31 94  1  0
 31121  1  0
 32 79  1  0
 32 98  1  0
 32123  1  0
 33 89  1  0
 33102  1  0
 33126  1  0
 34 96  1  0
 34 99  1  0
 34128  2  0
 35 95  1  0
 35110  1  0
 35127  1  0
 36101  1  0
 36120  1  0
 36132  1  0
 37118  1  0
 37125  1  0
 37138  1  0
 38119  1  0
 38133  1  0
 38147  1  0
 39240  1  0
 39250  1  0
 40244  1  0
 40251  1  0
 41243  1  0
 41252  1  0
 42246  1  0
 42254  1  0
 43248  1  0
 43256  1  0
 44258  1  0
 44264  1  0
 45260  1  0
 45267  1  0
 46263  1  0
 46268  1  0
 47266  1  0
 47270  1  0
234 48  1  6
235 49  1  1
236 50  1  6
237 51  1  1
239 52  1  6
 53272  1  0
 53280  1  0
 54276  1  0
 54279  1  0
249 55  1  6
 56278  1  0
 56286  1  0
253 57  1  1
257 58  1  6
238 59  1  6
 59342  1  0
 60287  1  0
 60293  1  0
241 61  1  1
 61344  1  0
242 62  1  6
 62345  1  0
261 63  1  1
245 64  1  1
 64347  1  0
247 65  1  6
 65351  1  0
269 66  1  1
271 67  1  1
 68282  1  0
255 69  1  6
 69354  1  0
 70283  1  0
 71285  1  0
259 72  1  1
 72356  1  0
 73288  1  0
 74284  1  0
 75295  1  0
 75298  1  0
262 76  1  6
 76360  1  0
265 77  1  1
 77364  1  0
 78290  1  0
275 79  1  1
281 80  1  1
 81292  1  0
 82297  1  0
 83301  1  0
 83306  1  0
 84294  1  0
273 85  1  1
 85367  1  0
274 86  1  1
 86368  1  0
 87299  1  0
277 88  1  1
 88372  1  0
291 89  1  6
 90305  1  0
289 91  1  1
 91379  1  0
 92310  1  0
 92315  1  0
 93312  1  0
 93314  1  0
 94304  1  0
300 95  1  1
 96303  1  0
296 97  1  6
 97385  1  0
 98313  1  0
307 99  1  1
302100  1  1
100393  1  0
308101  1  1
102321  1  0
103335  1  0
103346  1  0
309106  1  1
106405  1  0
311108  1  1
108409  1  0
110332  1  0
118339  1  0
333119  1  6
120366  1  0
122373  1  0
122376  1  0
337124  1  6
124430  1  0
365125  1  1
369129  1  1
129436  1  0
130361  2  0
131403  1  0
131416  1  0
133421  1  0
134375  2  0
135377  2  0
136380  2  0
137381  2  0
139382  2  0
140384  2  0
411141  1  1
141442  1  0
142390  2  0
143392  2  0
144406  1  0
407145  1  1
146395  2  0
148400  2  0
149402  2  0
150422  2  0
151424  2  0
152427  2  0
153431  2  0
154433  2  0
155439  2  0
156441  2  0
157444  2  0
250158  1  1
158316  1  0
158322  1  0
251159  1  6
159317  1  0
159324  1  0
252160  1  1
160318  1  0
160325  1  0
254161  1  6
161320  1  0
161328  1  0
256162  1  1
162319  1  0
162329  1  0
264163  1  1
163323  1  0
163331  1  0
267164  1  6
164326  1  0
164334  1  0
268165  1  1
165327  1  0
165336  1  0
270166  1  6
166330  1  0
166338  1  0
279167  1  6
167340  1  0
167353  1  0
286168  1  6
168348  1  0
168357  1  0
280169  1  6
169361  1  0
169362  1  0
293170  1  6
170371  1  0
170375  1  0
298171  1  1
171377  1  0
171378  1  0
306172  1  6
172382  1  0
172383  1  0
315173  1  6
173395  1  0
173396  1  0
314174  1  6
174398  1  0
174400  1  0
175322  2  0
175341  1  0
176324  2  0
176343  1  0
177325  2  0
177349  1  0
178329  2  0
178350  1  0
179328  2  0
179352  1  0
180331  2  0
180355  1  0
181334  2  0
181358  1  0
182336  2  0
182359  1  0
183316  1  0
183394  2  0
184338  2  0
184363  1  0
185317  1  0
185397  2  0
186319  1  0
186399  2  0
187318  1  0
187414  2  0
188320  1  0
188415  2  0
189353  2  0
189370  1  0
190327  1  0
190408  2  0
346191  1  1
191423  1  0
191424  1  0
192323  1  0
192417  2  0
193330  1  0
193413  2  0
194326  1  0
194418  2  0
195357  2  0
195374  1  0
196361  1  0
196402  1  0
197340  1  0
197425  2  0
198348  1  0
198429  2  0
199380  1  0
199394  1  0
200381  1  0
200397  1  0
201384  1  0
201399  1  0
202377  1  0
202422  1  0
376203  1  6
203433  1  0
203434  1  0
204390  1  0
204408  1  0
205375  1  0
205420  2  0
206392  1  0
206413  1  0
207382  1  0
207427  1  0
208386  2  0
208414  1  0
209387  2  0
209415  1  0
210389  2  0
210417  1  0
211391  2  0
211418  1  0
212395  1  0
212431  1  0
213386  1  0
214387  1  0
215404  2  0
215425  1  0
216389  1  0
217410  2  0
217429  1  0
218391  1  0
219400  1  0
219432  2  0
220394  1  0
416221  1  6
221439  1  0
221440  1  0
222397  1  0
223399  1  0
224404  1  0
225408  1  0
226410  1  0
227413  1  0
228420  1  0
229424  1  0
229437  2  0
230433  1  0
230441  1  0
231432  1  0
232439  1  0
232444  1  0
233437  1  0
234238  1  0
234240  1  0
235241  1  0
235244  1  0
236242  1  0
236243  1  0
237245  1  0
237246  1  0
238250  1  0
239247  1  0
239248  1  0
240282  1  1
241251  1  0
242252  1  0
243283  1  1
244284  1  6
245254  1  0
246285  1  6
247256  1  0
248288  1  1
249255  1  0
249258  1  0
253259  1  0
253260  1  0
255264  1  0
257262  1  0
257263  1  0
258292  1  1
259267  1  0
260290  1  6
261265  1  0
261266  1  0
262268  1  0
263294  1  1
265270  1  0
266297  1  6
269272  1  0
269273  1  0
271274  1  0
271276  1  0
272299  1  6
273280  1  0
274279  1  0
275277  1  0
275278  1  0
276303  1  6
277286  1  0
278304  1  6
281287  1  0
281289  1  0
287305  1  6
289293  1  0
291295  1  0
291296  1  0
295313  1  1
296298  1  0
300301  1  0
300302  1  0
301321  1  6
302306  1  0
307309  1  0
307312  1  0
308310  1  0
308311  1  0
309314  1  0
310332  1  6
311315  1  0
312339  1  6
316341  2  0
317343  2  0
318349  2  0
319350  2  0
320352  2  0
323355  2  0
326358  2  0
327359  2  0
330363  2  0
333335  1  0
333337  1  0
335366  1  1
337346  1  0
340370  2  0
341380  1  0
343381  1  0
348374  2  0
349386  1  0
350384  1  0
352387  1  0
355389  1  0
358391  1  0
359390  1  0
362388  2  0
363392  1  0
365369  1  0
365373  1  0
369376  1  0
370404  1  0
371401  2  0
373406  1  6
374410  1  0
378412  2  0
383419  2  0
388402  1  0
396426  2  0
398428  2  0
401420  1  0
403407  1  0
403421  1  6
407411  1  0
411416  1  0
412422  1  0
419427  1  0
423435  2  0
426431  1  0
428432  1  0
434438  2  0
435437  1  0
438441  1  0
440443  2  0
443444  1  0
M  END
