121494117
     RDKit          2D

463494  0  0  1  0  0  0  0  0999 V2000
   19.1419   17.0627    0.0000 S   0  0  0  0  0  0  0  0  0  0  0  0
   17.2712   14.8704    0.0000 S   0  0  0  0  0  0  0  0  0  0  0  0
   23.2863   15.9159    0.0000 S   0  0  0  0  0  0  0  0  0  0  0  0
   27.1511   12.2499    0.0000 S   0  0  0  0  0  0  0  0  0  0  0  0
   15.9672   16.1230    0.0000 S   0  0  0  0  0  0  0  0  0  0  0  0
   25.3966   10.2386    0.0000 S   0  0  0  0  0  0  0  0  0  0  0  0
   25.0911   -0.2745    0.0000 S   0  0  0  0  0  0  0  0  0  0  0  0
   26.4759    8.6740    0.0000 S   0  0  0  0  0  0  0  0  0  0  0  0
   14.6950   19.9868    0.0000 S   0  0  0  0  0  0  0  0  0  0  0  0
   25.1303    3.9165    0.0000 S   0  0  0  0  0  0  0  0  0  0  0  0
   28.2222   -3.0605    0.0000 S   0  0  0  0  0  0  0  0  0  0  0  0
   24.5149   -7.2451    0.0000 S   0  0  0  0  0  0  0  0  0  0  0  0
   21.3743  -10.0203    0.0000 S   0  0  0  0  0  0  0  0  0  0  0  0
   25.0670  -14.2178    0.0000 S   0  0  0  0  0  0  0  0  0  0  0  0
    9.2059   23.5862    0.0000 S   0  0  0  0  0  0  0  0  0  0  0  0
   28.1981  -17.0038    0.0000 S   0  0  0  0  0  0  0  0  0  0  0  0
   24.4908  -21.1884    0.0000 S   0  0  0  0  0  0  0  0  0  0  0  0
    7.4279   25.1268    0.0000 S   0  0  0  0  0  0  0  0  0  0  0  0
   21.3502  -23.9636    0.0000 S   0  0  0  0  0  0  0  0  0  0  0  0
   18.4214   16.3692    0.0000 P   0  0  0  0  0  0  0  0  0  0  0  0
   18.2659   14.9732    0.0000 P   0  0  0  0  0  0  0  0  0  0  0  0
   23.2148   14.9184    0.0000 P   0  0  0  0  0  0  0  0  0  0  0  0
   26.5368   13.0389    0.0000 P   0  0  0  0  0  0  0  0  0  0  0  0
   15.0156   15.8156    0.0000 P   0  0  0  0  0  0  0  0  0  0  0  0
   26.0407   11.0035    0.0000 P   0  0  0  0  0  0  0  0  0  0  0  0
   25.7615    0.4675    0.0000 P   0  0  0  0  0  0  0  0  0  0  0  0
   25.5243    8.3667    0.0000 P   0  0  0  0  0  0  0  0  0  0  0  0
   13.8298   20.4883    0.0000 P   0  0  0  0  0  0  0  0  0  0  0  0
   24.1304    3.9182    0.0000 P   0  0  0  0  0  0  0  0  0  0  0  0
   27.2222   -3.0588    0.0000 P   0  0  0  0  0  0  0  0  0  0  0  0
   23.8472   -6.5008    0.0000 P   0  0  0  0  0  0  0  0  0  0  0  0
   22.3743  -10.0221    0.0000 P   0  0  0  0  0  0  0  0  0  0  0  0
   25.7374  -13.4758    0.0000 P   0  0  0  0  0  0  0  0  0  0  0  0
    9.5132   22.6346    0.0000 P   0  0  0  0  0  0  0  0  0  0  0  0
   27.1981  -17.0021    0.0000 P   0  0  0  0  0  0  0  0  0  0  0  0
   23.8230  -20.4441    0.0000 P   0  0  0  0  0  0  0  0  0  0  0  0
    7.9294   25.9920    0.0000 P   0  0  0  0  0  0  0  0  0  0  0  0
   22.3501  -23.9654    0.0000 P   0  0  0  0  0  0  0  0  0  0  0  0
   27.3857  -12.9434    0.0000 Na  0  0  0  0  0 15  0  0  0  0  0  0
   22.1767  -19.9061    0.0000 Na  0  0  0  0  0 15  0  0  0  0  0  0
   25.7237   -2.1902    0.0000 Na  0  0  0  0  0 15  0  0  0  0  0  0
   25.6966  -17.8655    0.0000 Na  0  0  0  0  0 15  0  0  0  0  0  0
   23.8728  -10.8907    0.0000 Na  0  0  0  0  0 15  0  0  0  0  0  0
   25.1613    6.6731    0.0000 Na  0  0  0  0  0 15  0  0  0  0  0  0
   22.2008   -5.9628    0.0000 Na  0  0  0  0  0 15  0  0  0  0  0  0
   22.6289    3.0548    0.0000 Na  0  0  0  0  0 15  0  0  0  0  0  0
   19.2816   13.5702    0.0000 Na  0  0  0  0  0 15  0  0  0  0  0  0
   15.3313   21.3517    0.0000 Na  0  0  0  0  0 15  0  0  0  0  0  0
   23.8486  -24.8340    0.0000 Na  0  0  0  0  0 15  0  0  0  0  0  0
    9.8763   24.3282    0.0000 Na  0  0  0  0  0 15  0  0  0  0  0  0
    6.1973   25.9950    0.0000 Na  0  0  0  0  0 15  0  0  0  0  0  0
   22.2438   13.4842    0.0000 Na  0  0  0  0  0 15  0  0  0  0  0  0
   27.4097    0.9999    0.0000 Na  0  0  0  0  0 15  0  0  0  0  0  0
   25.8852   11.4341    0.0000 Na  0  0  0  0  0 15  0  0  0  0  0  0
   17.9410   14.7051    0.0000 Na  0  0  0  0  0 15  0  0  0  0  0  0
   26.6303    9.3749    0.0000 Na  0  0  0  0  0 15  0  0  0  0  0  0
   13.8545   14.5305    0.0000 Na  0  0  0  0  0 15  0  0  0  0  0  0
   19.6146   18.2169    0.0000 O   0  0  0  0  0  0  0  0  0  0  0  0
   16.0190   12.8948    0.0000 O   0  0  0  0  0  0  0  0  0  0  0  0
   20.6586   17.0553    0.0000 O   0  0  0  0  0  0  0  0  0  0  0  0
   26.4144   16.3685    0.0000 O   0  0  0  0  0  0  0  0  0  0  0  0
   29.2720   11.8155    0.0000 O   0  0  0  0  0  0  0  0  0  0  0  0
   12.3306   17.7882    0.0000 O   0  0  0  0  0  0  0  0  0  0  0  0
   22.8393   10.3393    0.0000 O   0  0  0  0  0  0  0  0  0  0  0  0
   22.4500    0.8334    0.0000 O   0  0  0  0  0  0  0  0  0  0  0  0
   29.1756   -0.3597    0.0000 O   0  0  0  0  0  0  0  0  0  0  0  0
   17.7278   17.0898    0.0000 O   0  0  0  0  0  0  0  0  0  0  0  0
   18.3687   13.9785    0.0000 O   0  0  0  0  0  0  0  0  0  0  0  0
   22.2173   14.9899    0.0000 O   0  0  0  0  0  0  0  0  0  0  0  0
   25.9225   13.8280    0.0000 O   0  0  0  0  0  0  0  0  0  0  0  0
   26.0836    6.6173    0.0000 O   0  0  0  0  0  0  0  0  0  0  0  0
   26.6849   11.7685    0.0000 O   0  0  0  0  0  0  0  0  0  0  0  0
   12.4691   23.5295    0.0000 O   0  0  0  0  0  0  0  0  0  0  0  0
   14.7083   16.7672    0.0000 O   0  0  0  0  0  0  0  0  0  0  0  0
   20.4303   -7.3163    0.0000 O   0  0  0  0  0  0  0  0  0  0  0  0
   25.2170    9.3183    0.0000 O   0  0  0  0  0  0  0  0  0  0  0  0
   25.0195    1.1379    0.0000 O   0  0  0  0  0  0  0  0  0  0  0  0
   17.5469   19.7726    0.0000 O   0  0  0  0  0  0  0  0  0  0  0  0
   18.3650   11.8030    0.0000 O   0  0  0  0  0  0  0  0  0  0  0  0
   23.2420   16.9090    0.0000 O   0  0  0  0  0  0  0  0  0  0  0  0
   27.1598   -6.1465    0.0000 O   0  0  0  0  0  0  0  0  0  0  0  0
   28.0344   14.3507    0.0000 O   0  0  0  0  0  0  0  0  0  0  0  0
   27.6352    9.8114    0.0000 O   0  0  0  0  0  0  0  0  0  0  0  0
   27.2239   -2.0588    0.0000 O   0  0  0  0  0  0  0  0  0  0  0  0
   13.0890   15.3143    0.0000 O   0  0  0  0  0  0  0  0  0  0  0  0
   12.9647   20.9898    0.0000 O   0  0  0  0  0  0  0  0  0  0  0  0
   24.1321    4.9182    0.0000 O   0  0  0  0  0  0  0  0  0  0  0  0
   18.1631   15.9680    0.0000 O   0  0  0  0  0  0  0  0  0  0  0  0
   19.1147   15.6487    0.0000 O   0  0  0  0  0  0  0  0  0  0  0  0
   23.5978    7.8653    0.0000 O   0  0  0  0  0  0  0  0  0  0  0  0
   24.2122   14.8469    0.0000 O   0  0  0  0  0  0  0  0  0  0  0  0
   24.3437   -0.9300    0.0000 O   0  0  0  0  0  0  0  0  0  0  0  0
   22.4259  -13.1099    0.0000 O   0  0  0  0  0  0  0  0  0  0  0  0
   27.3259   13.6532    0.0000 O   0  0  0  0  0  0  0  0  0  0  0  0
   15.3230   14.8640    0.0000 O   0  0  0  0  0  0  0  0  0  0  0  0
   29.2099   -2.9471    0.0000 O   0  0  0  0  0  0  0  0  0  0  0  0
   25.2758   11.6477    0.0000 O   0  0  0  0  0  0  0  0  0  0  0  0
   22.3760   -9.0221    0.0000 O   0  0  0  0  0  0  0  0  0  0  0  0
   24.5914   -5.8330    0.0000 O   0  0  0  0  0  0  0  0  0  0  0  0
   13.3283   19.6231    0.0000 O   0  0  0  0  0  0  0  0  0  0  0  0
   26.5035   -0.2029    0.0000 O   0  0  0  0  0  0  0  0  0  0  0  0
   29.1515  -14.3030    0.0000 O   0  0  0  0  0  0  0  0  0  0  0  0
   14.7270   22.2655    0.0000 O   0  0  0  0  0  0  0  0  0  0  0  0
   26.1179    4.0299    0.0000 O   0  0  0  0  0  0  0  0  0  0  0  0
   24.1286    2.9182    0.0000 O   0  0  0  0  0  0  0  0  0  0  0  0
   24.5728    8.0593    0.0000 O   0  0  0  0  0  0  0  0  0  0  0  0
   20.3871   -9.9035    0.0000 O   0  0  0  0  0  0  0  0  0  0  0  0
   24.9955  -12.8054    0.0000 O   0  0  0  0  0  0  0  0  0  0  0  0
   25.2601   -7.9032    0.0000 O   0  0  0  0  0  0  0  0  0  0  0  0
    7.0131   24.4003    0.0000 O   0  0  0  0  0  0  0  0  0  0  0  0
   27.2205   -4.0588    0.0000 O   0  0  0  0  0  0  0  0  0  0  0  0
   27.1358  -20.0898    0.0000 O   0  0  0  0  0  0  0  0  0  0  0  0
   23.1028   -7.1687    0.0000 O   0  0  0  0  0  0  0  0  0  0  0  0
   27.1999  -16.0021    0.0000 O   0  0  0  0  0  0  0  0  0  0  0  0
   10.4648   22.9420    0.0000 O   0  0  0  0  0  0  0  0  0  0  0  0
   24.3197  -14.8733    0.0000 O   0  0  0  0  0  0  0  0  0  0  0  0
    8.5616   22.3272    0.0000 O   0  0  0  0  0  0  0  0  0  0  0  0
   22.3725  -11.0221    0.0000 O   0  0  0  0  0  0  0  0  0  0  0  0
   29.1858  -16.8904    0.0000 O   0  0  0  0  0  0  0  0  0  0  0  0
   24.5672  -19.7763    0.0000 O   0  0  0  0  0  0  0  0  0  0  0  0
   26.4794  -14.1462    0.0000 O   0  0  0  0  0  0  0  0  0  0  0  0
   20.4062  -21.2596    0.0000 O   0  0  0  0  0  0  0  0  0  0  0  0
    6.4328   21.8786    0.0000 O   0  0  0  0  0  0  0  0  0  0  0  0
   25.2359  -21.8465    0.0000 O   0  0  0  0  0  0  0  0  0  0  0  0
   27.1964  -18.0021    0.0000 O   0  0  0  0  0  0  0  0  0  0  0  0
   17.7008   15.6758    0.0000 O   0  0  0  0  0  0  0  0  0  0  0  0
   19.1788   14.5649    0.0000 O   0  0  0  0  0  0  0  0  0  0  0  0
   23.1433   13.9210    0.0000 O   0  0  0  0  0  0  0  0  0  0  0  0
   25.7478   12.4247    0.0000 O   0  0  0  0  0  0  0  0  0  0  0  0
   14.0641   15.5082    0.0000 O   0  0  0  0  0  0  0  0  0  0  0  0
   26.8057   10.3594    0.0000 O   0  0  0  0  0  0  0  0  0  0  0  0
    8.7945   25.4905    0.0000 O   0  0  0  0  0  0  0  0  0  0  0  0
   22.3519  -22.9654    0.0000 O   0  0  0  0  0  0  0  0  0  0  0  0
   26.4319    1.2095    0.0000 O   0  0  0  0  0  0  0  0  0  0  0  0
   25.8317    7.4151    0.0000 O   0  0  0  0  0  0  0  0  0  0  0  0
   23.0787  -21.1120    0.0000 O   0  0  0  0  0  0  0  0  0  0  0  0
    7.5987   29.3073    0.0000 O   0  0  0  0  0  0  0  0  0  0  0  0
   14.3313   21.3534    0.0000 O   0  0  0  0  0  0  0  0  0  0  0  0
   23.1304    3.9200    0.0000 O   0  0  0  0  0  0  0  0  0  0  0  0
   20.3629  -23.8468    0.0000 O   0  0  0  0  0  0  0  0  0  0  0  0
   26.2222   -3.0570    0.0000 O   0  0  0  0  0  0  0  0  0  0  0  0
    8.4309   26.8572    0.0000 O   0  0  0  0  0  0  0  0  0  0  0  0
   23.1793   -5.7565    0.0000 O   0  0  0  0  0  0  0  0  0  0  0  0
   23.3743  -10.0238    0.0000 O   0  0  0  0  0  0  0  0  0  0  0  0
    6.2676   27.0883    0.0000 O   0  0  0  0  0  0  0  0  0  0  0  0
   26.4079  -12.7338    0.0000 O   0  0  0  0  0  0  0  0  0  0  0  0
    9.8206   21.6830    0.0000 O   0  0  0  0  0  0  0  0  0  0  0  0
   27.3925    3.9219    0.0000 O   0  0  0  0  0  0  0  0  0  0  0  0
   22.4018  -27.0533    0.0000 O   0  0  0  0  0  0  0  0  0  0  0  0
   26.1981  -17.0003    0.0000 O   0  0  0  0  0  0  0  0  0  0  0  0
   22.3484  -24.9654    0.0000 O   0  0  0  0  0  0  0  0  0  0  0  0
   28.8386   -6.8914    0.0000 O   0  0  0  0  0  0  0  0  0  0  0  0
   23.5436  -15.8900    0.0000 O   0  0  0  0  0  0  0  0  0  0  0  0
   23.1552  -19.6998    0.0000 O   0  0  0  0  0  0  0  0  0  0  0  0
   20.5938   23.2167    0.0000 O   0  0  0  0  0  0  0  0  0  0  0  0
   14.4825    8.3295    0.0000 O   0  0  0  0  0  0  0  0  0  0  0  0
   32.6425    8.3742    0.0000 O   0  0  0  0  0  0  0  0  0  0  0  0
   30.8283  -13.5539    0.0000 O   0  0  0  0  0  0  0  0  0  0  0  0
   24.2956  -28.8166    0.0000 O   0  0  0  0  0  0  0  0  0  0  0  0
   20.9537   -4.0368    0.0000 O   0  0  0  0  0  0  0  0  0  0  0  0
   33.7886   -2.5224    0.0000 O   0  0  0  0  0  0  0  0  0  0  0  0
   24.9713  -26.7487    0.0000 O   0  0  0  0  0  0  0  0  0  0  0  0
    9.6298   29.7936    0.0000 O   0  0  0  0  0  0  0  0  0  0  0  0
   28.8145  -20.8347    0.0000 O   0  0  0  0  0  0  0  0  0  0  0  0
    7.0642   26.4935    0.0000 O   0  0  0  0  0  0  0  0  0  0  0  0
    5.5323   25.4868    0.0000 O   0  0  0  0  0  0  0  0  0  0  0  0
   30.5595    5.3254    0.0000 O   0  0  0  0  0  0  0  0  0  0  0  0
   23.3501  -23.9671    0.0000 O   0  0  0  0  0  0  0  0  0  0  0  0
   20.3766  -17.2935    0.0000 O   0  0  0  0  0  0  0  0  0  0  0  0
   19.0880  -23.9504    0.0000 O   0  0  0  0  0  0  0  0  0  0  0  0
   33.6273  -15.5949    0.0000 O   0  0  0  0  0  0  0  0  0  0  0  0
   29.1707  -24.2804    0.0000 O   0  0  0  0  0  0  0  0  0  0  0  0
    6.5262   30.7982    0.0000 O   0  0  0  0  0  0  0  0  0  0  0  0
   23.5195  -29.8333    0.0000 O   0  0  0  0  0  0  0  0  0  0  0  0
    3.0804   30.4421    0.0000 O   0  0  0  0  0  0  0  0  0  0  0  0
   20.3525  -31.2368    0.0000 O   0  0  0  0  0  0  0  0  0  0  0  0
   19.7110   19.9963    0.0000 N   0  0  0  0  0  0  0  0  0  0  0  0
   16.2947   11.1343    0.0000 N   0  0  0  0  0  0  0  0  0  0  0  0
   21.7335   18.4766    0.0000 N   0  0  0  0  0  0  0  0  0  0  0  0
   28.1899   16.5207    0.0000 N   0  0  0  0  0  0  0  0  0  0  0  0
   29.7901   10.1105    0.0000 N   0  0  0  0  0  0  0  0  0  0  0  0
   11.2068   16.4053    0.0000 N   0  0  0  0  0  0  0  0  0  0  0  0
   21.7156    8.9564    0.0000 N   0  0  0  0  0  0  0  0  0  0  0  0
   22.1682   -0.9262    0.0000 N   0  0  0  0  0  0  0  0  0  0  0  0
   30.6684   -1.3329    0.0000 N   0  0  0  0  0  0  0  0  0  0  0  0
   14.0582   24.3357    0.0000 N   0  0  0  0  0  0  0  0  0  0  0  0
   18.9341   -8.2843    0.0000 N   0  0  0  0  0  0  0  0  0  0  0  0
   27.5765    5.6442    0.0000 N   0  0  0  0  0  0  0  0  0  0  0  0
   27.4356   -7.9070    0.0000 N   0  0  0  0  0  0  0  0  0  0  0  0
   22.1441  -14.8695    0.0000 N   0  0  0  0  0  0  0  0  0  0  0  0
   30.6443  -15.2762    0.0000 N   0  0  0  0  0  0  0  0  0  0  0  0
   27.4115  -21.8503    0.0000 N   0  0  0  0  0  0  0  0  0  0  0  0
    5.3483   23.7646    0.0000 N   0  0  0  0  0  0  0  0  0  0  0  0
   20.9108   21.0691    0.0000 N   0  0  0  0  0  0  0  0  0  0  0  0
   16.2947    9.5248    0.0000 N   0  0  0  0  0  0  0  0  0  0  0  0
   21.5095   20.0704    0.0000 N   0  0  0  0  0  0  0  0  0  0  0  0
   30.4906    8.6615    0.0000 N   0  0  0  0  0  0  0  0  0  0  0  0
   29.2244   17.7536    0.0000 N   0  0  0  0  0  0  0  0  0  0  0  0
   10.0107   15.3284    0.0000 N   0  0  0  0  0  0  0  0  0  0  0  0
   20.1144    8.7937    0.0000 N   0  0  0  0  0  0  0  0  0  0  0  0
   20.8630   -1.8678    0.0000 N   0  0  0  0  0  0  0  0  0  0  0  0
   18.3575   21.2171    0.0000 N   0  0  0  0  0  0  0  0  0  0  0  0
   32.2427   -0.9982    0.0000 N   0  0  0  0  0  0  0  0  0  0  0  0
   14.4825   11.3295    0.0000 N   0  0  0  0  0  0  0  0  0  0  0  0
   31.3367   11.0751    0.0000 N   0  0  0  0  0  0  0  0  0  0  0  0
   23.5553   18.5355    0.0000 N   0  0  0  0  0  0  0  0  0  0  0  0
   29.4527   15.2062    0.0000 N   0  0  0  0  0  0  0  0  0  0  0  0
   15.3636   25.2772    0.0000 N   0  0  0  0  0  0  0  0  0  0  0  0
   23.3867   -2.2818    0.0000 N   0  0  0  0  0  0  0  0  0  0  0  0
   10.1393   17.8827    0.0000 N   0  0  0  0  0  0  0  0  0  0  0  0
   18.9100  -22.2276    0.0000 N   0  0  0  0  0  0  0  0  0  0  0  0
   30.8542   -3.1461    0.0000 N   0  0  0  0  0  0  0  0  0  0  0  0
   22.0930    7.1731    0.0000 N   0  0  0  0  0  0  0  0  0  0  0  0
   17.3609   -7.9442    0.0000 N   0  0  0  0  0  0  0  0  0  0  0  0
   28.9760    4.6237    0.0000 N   0  0  0  0  0  0  0  0  0  0  0  0
   12.8397   25.6913    0.0000 N   0  0  0  0  0  0  0  0  0  0  0  0
   18.7420  -10.0968    0.0000 N   0  0  0  0  0  0  0  0  0  0  0  0
   18.8984   22.8625    0.0000 N   0  0  0  0  0  0  0  0  0  0  0  0
   13.6164    9.8295    0.0000 N   0  0  0  0  0  0  0  0  0  0  0  0
   32.7693   10.1016    0.0000 N   0  0  0  0  0  0  0  0  0  0  0  0
   21.9602  -16.5918    0.0000 N   0  0  0  0  0  0  0  0  0  0  0  0
    5.8190   29.2171    0.0000 N   0  0  0  0  0  0  0  0  0  0  0  0
   22.6768   -3.8617    0.0000 N   0  0  0  0  0  0  0  0  0  0  0  0
   32.5015   -3.6813    0.0000 N   0  0  0  0  0  0  0  0  0  0  0  0
   29.0166   -8.6142    0.0000 N   0  0  0  0  0  0  0  0  0  0  0  0
   32.2278  -14.5744    0.0000 N   0  0  0  0  0  0  0  0  0  0  0  0
   24.2041   20.1414    0.0000 N   0  0  0  0  0  0  0  0  0  0  0  0
   31.0802   15.7986    0.0000 N   0  0  0  0  0  0  0  0  0  0  0  0
    8.4451   17.5226    0.0000 N   0  0  0  0  0  0  0  0  0  0  0  0
   20.6884    6.1599    0.0000 N   0  0  0  0  0  0  0  0  0  0  0  0
   28.9926  -22.5575    0.0000 N   0  0  0  0  0  0  0  0  0  0  0  0
   23.1377   21.5063    0.0000 N   0  0  0  0  0  0  0  0  0  0  0  0
   31.3810   17.5044    0.0000 N   0  0  0  0  0  0  0  0  0  0  0  0
   13.5497   27.2712    0.0000 N   0  0  0  0  0  0  0  0  0  0  0  0
    7.9098   15.8753    0.0000 N   0  0  0  0  0  0  0  0  0  0  0  0
   17.0929  -10.6264    0.0000 N   0  0  0  0  0  0  0  0  0  0  0  0
   19.1084    6.8699    0.0000 N   0  0  0  0  0  0  0  0  0  0  0  0
    3.9488   24.7851    0.0000 N   0  0  0  0  0  0  0  0  0  0  0  0
   17.2029   22.5082    0.0000 N   0  0  0  0  0  0  0  0  0  0  0  0
   22.1200  -28.8128    0.0000 N   0  0  0  0  0  0  0  0  0  0  0  0
   12.7504   11.3295    0.0000 N   0  0  0  0  0  0  0  0  0  0  0  0
   32.8961   11.8290    0.0000 N   0  0  0  0  0  0  0  0  0  0  0  0
   15.2729   27.4463    0.0000 N   0  0  0  0  0  0  0  0  0  0  0  0
   24.3999   -3.6866    0.0000 N   0  0  0  0  0  0  0  0  0  0  0  0
   15.8097   -9.4630    0.0000 N   0  0  0  0  0  0  0  0  0  0  0  0
   31.2143   -4.8403    0.0000 N   0  0  0  0  0  0  0  0  0  0  0  0
   29.1947  -10.3371    0.0000 N   0  0  0  0  0  0  0  0  0  0  0  0
   17.5069  -23.2432    0.0000 N   0  0  0  0  0  0  0  0  0  0  0  0
    4.8033   30.6201    0.0000 N   0  0  0  0  0  0  0  0  0  0  0  0
    2.3653   24.0833    0.0000 N   0  0  0  0  0  0  0  0  0  0  0  0
   21.9360  -30.5351    0.0000 N   0  0  0  0  0  0  0  0  0  0  0  0
   15.9258  -22.5360    0.0000 N   0  0  0  0  0  0  0  0  0  0  0  0
   18.0052   18.0505    0.0000 C   0  0  0  0  0  0  0  0  0  0  0  0
   17.5587   13.3922    0.0000 C   0  0  0  0  0  0  0  0  0  0  0  0
   21.7805   15.8895    0.0000 C   0  0  0  0  0  0  0  0  0  0  0  0
   26.2987   14.7546    0.0000 C   0  0  0  0  0  0  0  0  0  0  0  0
   18.2148   19.0283    0.0000 C   0  0  0  0  0  0  0  0  0  0  0  0
   27.6694   11.5931    0.0000 C   0  0  0  0  0  0  0  0  0  0  0  0
   18.8703   17.5490    0.0000 C   0  0  0  0  0  0  0  0  0  0  0  0
   17.5570   12.3922    0.0000 C   0  0  0  0  0  0  0  0  0  0  0  0
   22.2515   16.7716    0.0000 C   0  0  0  0  0  0  0  0  0  0  0  0
   16.6082   13.7028    0.0000 C   0  0  0  0  0  0  0  0  0  0  0  0
   20.7960   16.0648    0.0000 C   0  0  0  0  0  0  0  0  0  0  0  0
   27.2695   14.9948    0.0000 C   0  0  0  0  0  0  0  0  0  0  0  0
   25.7703   15.6035    0.0000 C   0  0  0  0  0  0  0  0  0  0  0  0
   28.1062   10.6936    0.0000 C   0  0  0  0  0  0  0  0  0  0  0  0
   28.3899   12.2865    0.0000 C   0  0  0  0  0  0  0  0  0  0  0  0
   19.2095   19.1311    0.0000 C   0  0  0  0  0  0  0  0  0  0  0  0
   13.7305   16.9768    0.0000 C   0  0  0  0  0  0  0  0  0  0  0  0
   16.6054   12.0848    0.0000 C   0  0  0  0  0  0  0  0  0  0  0  0
   21.5581   17.4921    0.0000 C   0  0  0  0  0  0  0  0  0  0  0  0
   24.2393    9.5278    0.0000 C   0  0  0  0  0  0  0  0  0  0  0  0
   27.3409   15.9922    0.0000 C   0  0  0  0  0  0  0  0  0  0  0  0
   12.9862   16.3090    0.0000 C   0  0  0  0  0  0  0  0  0  0  0  0
   29.0967   10.8310    0.0000 C   0  0  0  0  0  0  0  0  0  0  0  0
   24.0681    0.8306    0.0000 C   0  0  0  0  0  0  0  0  0  0  0  0
   13.3253   17.8911    0.0000 C   0  0  0  0  0  0  0  0  0  0  0  0
   23.4949    8.8600    0.0000 C   0  0  0  0  0  0  0  0  0  0  0  0
   23.8341   10.4421    0.0000 C   0  0  0  0  0  0  0  0  0  0  0  0
   23.7574   -0.1199    0.0000 C   0  0  0  0  0  0  0  0  0  0  0  0
   28.0908   -1.5603    0.0000 C   0  0  0  0  0  0  0  0  0  0  0  0
   12.1210   16.8105    0.0000 C   0  0  0  0  0  0  0  0  0  0  0  0
   23.2601    1.4198    0.0000 C   0  0  0  0  0  0  0  0  0  0  0  0
   29.0036   -1.9686    0.0000 C   0  0  0  0  0  0  0  0  0  0  0  0
   22.6297    9.3615    0.0000 C   0  0  0  0  0  0  0  0  0  0  0  0
   28.1971   -0.5659    0.0000 C   0  0  0  0  0  0  0  0  0  0  0  0
   22.7574   -0.1182    0.0000 C   0  0  0  0  0  0  0  0  0  0  0  0
   29.6741   -1.2266    0.0000 C   0  0  0  0  0  0  0  0  0  0  0  0
   24.9989    5.4167    0.0000 C   0  0  0  0  0  0  0  0  0  0  0  0
   12.9664   21.9898    0.0000 C   0  0  0  0  0  0  0  0  0  0  0  0
   13.7764   22.5761    0.0000 C   0  0  0  0  0  0  0  0  0  0  0  0
   25.1051    6.4111    0.0000 C   0  0  0  0  0  0  0  0  0  0  0  0
   25.9117    5.0084    0.0000 C   0  0  0  0  0  0  0  0  0  0  0  0
   21.5109   -8.5206    0.0000 C   0  0  0  0  0  0  0  0  0  0  0  0
   12.1584   22.5789    0.0000 C   0  0  0  0  0  0  0  0  0  0  0  0
   20.5967   -8.9257    0.0000 C   0  0  0  0  0  0  0  0  0  0  0  0
   13.4691   23.5277    0.0000 C   0  0  0  0  0  0  0  0  0  0  0  0
   21.4081   -7.5259    0.0000 C   0  0  0  0  0  0  0  0  0  0  0  0
   26.5821    5.7504    0.0000 C   0  0  0  0  0  0  0  0  0  0  0  0
   18.9731   16.5543    0.0000 C   0  0  0  0  0  0  0  0  0  0  0  0
   25.5419   -6.1436    0.0000 C   0  0  0  0  0  0  0  0  0  0  0  0
   20.0756   15.3714    0.0000 C   0  0  0  0  0  0  0  0  0  0  0  0
   16.3008   14.6544    0.0000 C   0  0  0  0  0  0  0  0  0  0  0  0
   19.9288   -8.1814    0.0000 C   0  0  0  0  0  0  0  0  0  0  0  0
   24.7729   15.6750    0.0000 C   0  0  0  0  0  0  0  0  0  0  0  0
   28.2524   13.2770    0.0000 C   0  0  0  0  0  0  0  0  0  0  0  0
   26.3519   -5.5572    0.0000 C   0  0  0  0  0  0  0  0  0  0  0  0
   25.8493   -7.0952    0.0000 C   0  0  0  0  0  0  0  0  0  0  0  0
   24.3355   11.3073    0.0000 C   0  0  0  0  0  0  0  0  0  0  0  0
   13.8268   18.7562    0.0000 C   0  0  0  0  0  0  0  0  0  0  0  0
   24.0440  -13.1127    0.0000 C   0  0  0  0  0  0  0  0  0  0  0  0
   26.8493   -7.0970    0.0000 C   0  0  0  0  0  0  0  0  0  0  0  0
   23.2618    2.4198    0.0000 C   0  0  0  0  0  0  0  0  0  0  0  0
   23.2360  -12.5236    0.0000 C   0  0  0  0  0  0  0  0  0  0  0  0
   23.7333  -14.0633    0.0000 C   0  0  0  0  0  0  0  0  0  0  0  0
   27.4551    0.1045    0.0000 C   0  0  0  0  0  0  0  0  0  0  0  0
   22.7333  -14.0615    0.0000 C   0  0  0  0  0  0  0  0  0  0  0  0
   24.3631    7.0815    0.0000 C   0  0  0  0  0  0  0  0  0  0  0  0
   28.0668  -15.5036    0.0000 C   0  0  0  0  0  0  0  0  0  0  0  0
   28.1730  -14.5092    0.0000 C   0  0  0  0  0  0  0  0  0  0  0  0
   28.9796  -15.9119    0.0000 C   0  0  0  0  0  0  0  0  0  0  0  0
   11.2068   22.2716    0.0000 C   0  0  0  0  0  0  0  0  0  0  0  0
   22.1523   -6.8580    0.0000 C   0  0  0  0  0  0  0  0  0  0  0  0
   29.6500  -15.1699    0.0000 C   0  0  0  0  0  0  0  0  0  0  0  0
   26.3536   -4.5573    0.0000 C   0  0  0  0  0  0  0  0  0  0  0  0
    7.8197   22.9977    0.0000 C   0  0  0  0  0  0  0  0  0  0  0  0
   25.5178  -20.0870    0.0000 C   0  0  0  0  0  0  0  0  0  0  0  0
    6.8412   22.7914    0.0000 C   0  0  0  0  0  0  0  0  0  0  0  0
   26.3278  -19.5006    0.0000 C   0  0  0  0  0  0  0  0  0  0  0  0
   25.8251  -21.0385    0.0000 C   0  0  0  0  0  0  0  0  0  0  0  0
    7.9259   23.9920    0.0000 C   0  0  0  0  0  0  0  0  0  0  0  0
   23.2377  -11.5236    0.0000 C   0  0  0  0  0  0  0  0  0  0  0  0
    6.3426   23.6583    0.0000 C   0  0  0  0  0  0  0  0  0  0  0  0
   26.8251  -21.0403    0.0000 C   0  0  0  0  0  0  0  0  0  0  0  0
   19.3074   20.9048    0.0000 C   0  0  0  0  0  0  0  0  0  0  0  0
   15.3485   10.8295    0.0000 C   0  0  0  0  0  0  0  0  0  0  0  0
   22.6281   18.9101    0.0000 C   0  0  0  0  0  0  0  0  0  0  0  0
   30.7746   10.2480    0.0000 C   0  0  0  0  0  0  0  0  0  0  0  0
   29.1106   16.1459    0.0000 C   0  0  0  0  0  0  0  0  0  0  0  0
   27.4310  -13.8388    0.0000 C   0  0  0  0  0  0  0  0  0  0  0  0
   20.6999   20.0976    0.0000 C   0  0  0  0  0  0  0  0  0  0  0  0
   10.3472   16.9046    0.0000 C   0  0  0  0  0  0  0  0  0  0  0  0
   16.8783   10.3295    0.0000 C   0  0  0  0  0  0  0  0  0  0  0  0
   21.0435   19.1923    0.0000 C   0  0  0  0  0  0  0  0  0  0  0  0
   21.5082    7.9842    0.0000 C   0  0  0  0  0  0  0  0  0  0  0  0
   22.4746   -1.8719    0.0000 C   0  0  0  0  0  0  0  0  0  0  0  0
   28.2601   17.5123    0.0000 C   0  0  0  0  0  0  0  0  0  0  0  0
   29.6149    9.1320    0.0000 C   0  0  0  0  0  0  0  0  0  0  0  0
   31.1632   -2.1950    0.0000 C   0  0  0  0  0  0  0  0  0  0  0  0
   10.9993   15.4331    0.0000 C   0  0  0  0  0  0  0  0  0  0  0  0
   21.4868  -22.4639    0.0000 C   0  0  0  0  0  0  0  0  0  0  0  0
   20.8560    9.4557    0.0000 C   0  0  0  0  0  0  0  0  0  0  0  0
   26.3295  -18.5006    0.0000 C   0  0  0  0  0  0  0  0  0  0  0  0
   21.1742   -0.9237    0.0000 C   0  0  0  0  0  0  0  0  0  0  0  0
   21.3840  -21.4692    0.0000 C   0  0  0  0  0  0  0  0  0  0  0  0
   20.5725  -22.8690    0.0000 C   0  0  0  0  0  0  0  0  0  0  0  0
   31.3342   -0.5947    0.0000 C   0  0  0  0  0  0  0  0  0  0  0  0
   13.7519   25.2814    0.0000 C   0  0  0  0  0  0  0  0  0  0  0  0
   20.0529   21.5713    0.0000 C   0  0  0  0  0  0  0  0  0  0  0  0
    8.7928   24.4905    0.0000 C   0  0  0  0  0  0  0  0  0  0  0  0
   16.5684   19.5664    0.0000 C   0  0  0  0  0  0  0  0  0  0  0  0
   15.3485    9.8295    0.0000 C   0  0  0  0  0  0  0  0  0  0  0  0
   19.2792   12.2081    0.0000 C   0  0  0  0  0  0  0  0  0  0  0  0
   23.6182   17.8356    0.0000 C   0  0  0  0  0  0  0  0  0  0  0  0
   19.9047  -22.1247    0.0000 C   0  0  0  0  0  0  0  0  0  0  0  0
   28.9747   14.6911    0.0000 C   0  0  0  0  0  0  0  0  0  0  0  0
   22.4889   19.9004    0.0000 C   0  0  0  0  0  0  0  0  0  0  0  0
   31.2099    9.3477    0.0000 C   0  0  0  0  0  0  0  0  0  0  0  0
   18.4363   -9.1447    0.0000 C   0  0  0  0  0  0  0  0  0  0  0  0
   28.1636    8.9625    0.0000 C   0  0  0  0  0  0  0  0  0  0  0  0
   29.7534   16.9120    0.0000 C   0  0  0  0  0  0  0  0  0  0  0  0
   15.0523   24.3331    0.0000 C   0  0  0  0  0  0  0  0  0  0  0  0
   12.2790   14.7279    0.0000 C   0  0  0  0  0  0  0  0  0  0  0  0
    9.6040   16.2354    0.0000 C   0  0  0  0  0  0  0  0  0  0  0  0
   22.7877    7.2789    0.0000 C   0  0  0  0  0  0  0  0  0  0  0  0
   20.5132    7.8831    0.0000 C   0  0  0  0  0  0  0  0  0  0  0  0
   18.2708   -7.5438    0.0000 C   0  0  0  0  0  0  0  0  0  0  0  0
   21.6636   -2.4569    0.0000 C   0  0  0  0  0  0  0  0  0  0  0  0
   25.3383   -0.8272    0.0000 C   0  0  0  0  0  0  0  0  0  0  0  0
   27.9816    4.7299    0.0000 C   0  0  0  0  0  0  0  0  0  0  0  0
   28.1657    6.4522    0.0000 C   0  0  0  0  0  0  0  0  0  0  0  0
   32.1413   -1.9871    0.0000 C   0  0  0  0  0  0  0  0  0  0  0  0
   28.4656   -3.6150    0.0000 C   0  0  0  0  0  0  0  0  0  0  0  0
    7.9324   27.7240    0.0000 C   0  0  0  0  0  0  0  0  0  0  0  0
   22.1282  -20.8013    0.0000 C   0  0  0  0  0  0  0  0  0  0  0  0
   15.4713   22.9333    0.0000 C   0  0  0  0  0  0  0  0  0  0  0  0
   25.3736    3.3621    0.0000 C   0  0  0  0  0  0  0  0  0  0  0  0
    6.9380   27.8303    0.0000 C   0  0  0  0  0  0  0  0  0  0  0  0
   14.5629   25.8664    0.0000 C   0  0  0  0  0  0  0  0  0  0  0  0
   27.0273   -8.8198    0.0000 C   0  0  0  0  0  0  0  0  0  0  0  0
   21.1290  -10.5739    0.0000 C   0  0  0  0  0  0  0  0  0  0  0  0
    8.3407   28.6369    0.0000 C   0  0  0  0  0  0  0  0  0  0  0  0
   17.4589   -8.9334    0.0000 C   0  0  0  0  0  0  0  0  0  0  0  0
   28.4303   -7.8042    0.0000 C   0  0  0  0  0  0  0  0  0  0  0  0
    6.7318   28.8088    0.0000 C   0  0  0  0  0  0  0  0  0  0  0  0
   22.5493  -15.7838    0.0000 C   0  0  0  0  0  0  0  0  0  0  0  0
   21.1499  -14.7633    0.0000 C   0  0  0  0  0  0  0  0  0  0  0  0
   24.2658   -7.7970    0.0000 C   0  0  0  0  0  0  0  0  0  0  0  0
   19.8484   22.5502    0.0000 C   0  0  0  0  0  0  0  0  0  0  0  0
   14.4825    9.3295    0.0000 C   0  0  0  0  0  0  0  0  0  0  0  0
   32.2072    9.2745    0.0000 C   0  0  0  0  0  0  0  0  0  0  0  0
   23.2769   20.5160    0.0000 C   0  0  0  0  0  0  0  0  0  0  0  0
   31.2335  -14.4682    0.0000 C   0  0  0  0  0  0  0  0  0  0  0  0
   31.0494  -16.1904    0.0000 C   0  0  0  0  0  0  0  0  0  0  0  0
   30.7382   16.7383    0.0000 C   0  0  0  0  0  0  0  0  0  0  0  0
   25.3143  -14.7705    0.0000 C   0  0  0  0  0  0  0  0  0  0  0  0
    8.6530   16.5445    0.0000 C   0  0  0  0  0  0  0  0  0  0  0  0
   29.1600    6.3459    0.0000 C   0  0  0  0  0  0  0  0  0  0  0  0
   21.7647   -3.4518    0.0000 C   0  0  0  0  0  0  0  0  0  0  0  0
   20.1033    6.9710    0.0000 C   0  0  0  0  0  0  0  0  0  0  0  0
   32.8105   -2.7303    0.0000 C   0  0  0  0  0  0  0  0  0  0  0  0
   28.4415  -17.5582    0.0000 C   0  0  0  0  0  0  0  0  0  0  0  0
   18.1529   22.1959    0.0000 C   0  0  0  0  0  0  0  0  0  0  0  0
   13.6164   10.8295    0.0000 C   0  0  0  0  0  0  0  0  0  0  0  0
   28.4062  -21.7475    0.0000 C   0  0  0  0  0  0  0  0  0  0  0  0
   27.0032  -22.7631    0.0000 C   0  0  0  0  0  0  0  0  0  0  0  0
    4.7591   22.9566    0.0000 C   0  0  0  0  0  0  0  0  0  0  0  0
   32.3340   11.0019    0.0000 C   0  0  0  0  0  0  0  0  0  0  0  0
    4.9432   24.6788    0.0000 C   0  0  0  0  0  0  0  0  0  0  0  0
   23.2118  -26.4669    0.0000 C   0  0  0  0  0  0  0  0  0  0  0  0
   27.6137   -9.6299    0.0000 C   0  0  0  0  0  0  0  0  0  0  0  0
   14.4618   26.8613    0.0000 C   0  0  0  0  0  0  0  0  0  0  0  0
   29.5652    5.4317    0.0000 C   0  0  0  0  0  0  0  0  0  0  0  0
   24.0198  -27.0560    0.0000 C   0  0  0  0  0  0  0  0  0  0  0  0
    7.0192   21.0686    0.0000 C   0  0  0  0  0  0  0  0  0  0  0  0
    9.3192   28.8431    0.0000 C   0  0  0  0  0  0  0  0  0  0  0  0
   23.4878   -3.2767    0.0000 C   0  0  0  0  0  0  0  0  0  0  0  0
   23.7092  -28.0066    0.0000 C   0  0  0  0  0  0  0  0  0  0  0  0
   24.2417  -21.7403    0.0000 C   0  0  0  0  0  0  0  0  0  0  0  0
   16.7872   -9.6743    0.0000 C   0  0  0  0  0  0  0  0  0  0  0  0
   31.5233   -3.8892    0.0000 C   0  0  0  0  0  0  0  0  0  0  0  0
   20.5607  -15.5713    0.0000 C   0  0  0  0  0  0  0  0  0  0  0  0
   24.3433   19.1511    0.0000 C   0  0  0  0  0  0  0  0  0  0  0  0
   30.4375   15.0326    0.0000 C   0  0  0  0  0  0  0  0  0  0  0  0
   22.7092  -28.0048    0.0000 C   0  0  0  0  0  0  0  0  0  0  0  0
    9.1882   18.1917    0.0000 C   0  0  0  0  0  0  0  0  0  0  0  0
   21.6833    6.2610    0.0000 C   0  0  0  0  0  0  0  0  0  0  0  0
   32.0438  -16.2967    0.0000 C   0  0  0  0  0  0  0  0  0  0  0  0
   28.6083   -9.5271    0.0000 C   0  0  0  0  0  0  0  0  0  0  0  0
   23.2136  -25.4669    0.0000 C   0  0  0  0  0  0  0  0  0  0  0  0
   20.9658  -16.4855    0.0000 C   0  0  0  0  0  0  0  0  0  0  0  0
   18.3236  -21.4175    0.0000 C   0  0  0  0  0  0  0  0  0  0  0  0
   18.5017  -23.1404    0.0000 C   0  0  0  0  0  0  0  0  0  0  0  0
   12.7387   26.6862    0.0000 C   0  0  0  0  0  0  0  0  0  0  0  0
   27.5896  -23.5732    0.0000 C   0  0  0  0  0  0  0  0  0  0  0  0
   32.6329  -15.4887    0.0000 C   0  0  0  0  0  0  0  0  0  0  0  0
    3.7648   23.0628    0.0000 C   0  0  0  0  0  0  0  0  0  0  0  0
   18.0703  -10.8377    0.0000 C   0  0  0  0  0  0  0  0  0  0  0  0
   21.1049  -24.5172    0.0000 C   0  0  0  0  0  0  0  0  0  0  0  0
   28.5843  -23.4704    0.0000 C   0  0  0  0  0  0  0  0  0  0  0  0
    3.3596   23.9771    0.0000 C   0  0  0  0  0  0  0  0  0  0  0  0
    5.7162   30.2118    0.0000 C   0  0  0  0  0  0  0  0  0  0  0  0
    5.0089   28.6307    0.0000 C   0  0  0  0  0  0  0  0  0  0  0  0
   17.3289  -21.5203    0.0000 C   0  0  0  0  0  0  0  0  0  0  0  0
    5.2898   27.2979    0.0000 C   0  0  0  0  0  0  0  0  0  0  0  0
   16.9206  -22.4332    0.0000 C   0  0  0  0  0  0  0  0  0  0  0  0
    4.0961   29.0390    0.0000 C   0  0  0  0  0  0  0  0  0  0  0  0
   22.5251  -29.7271    0.0000 C   0  0  0  0  0  0  0  0  0  0  0  0
   21.1257  -28.7066    0.0000 C   0  0  0  0  0  0  0  0  0  0  0  0
    3.9933   30.0337    0.0000 C   0  0  0  0  0  0  0  0  0  0  0  0
   25.2902  -28.7138    0.0000 C   0  0  0  0  0  0  0  0  0  0  0  0
   20.5365  -29.5146    0.0000 C   0  0  0  0  0  0  0  0  0  0  0  0
   20.9417  -30.4288    0.0000 C   0  0  0  0  0  0  0  0  0  0  0  0
  1 20  2  0
  2 21  2  0
  3 22  2  0
  4 23  2  0
  5 24  2  0
  6 25  2  0
  7 26  2  0
  8 27  2  0
  9 28  2  0
 10 29  2  0
 11 30  2  0
 12 31  2  0
 13 32  2  0
 14 33  2  0
 15 34  1  0
 16 35  2  0
 17 36  2  0
 18 37  2  0
 19 38  2  0
 20 67  1  0
 20 89  1  0
 20126  1  0
 21 68  1  0
 21 88  1  0
 21127  1  0
 22 69  1  0
 22 91  1  0
 22128  1  0
 23 70  1  0
 23 94  1  0
 23129  1  0
 24 74  1  0
 24 95  1  0
 24130  1  0
 25 72  1  0
 25 97  1  0
 25131  1  0
 26 77  1  0
 26101  1  0
 26134  1  0
 27 76  1  0
 27106  1  0
 27135  1  0
 28 86  1  0
 28100  1  0
 28138  1  0
 29 87  1  0
 29105  1  0
 29139  1  0
 30 84  1  0
 30111  1  0
 30141  1  0
 31 99  1  0
 31113  1  0
 31143  1  0
 32 98  1  0
 32118  1  0
 32144  1  0
 33108  1  0
 33121  1  0
 33146  1  0
 34115  1  0
 34117  1  0
 34147  2  0
 35114  1  0
 35125  1  0
 35150  1  0
 36120  1  0
 36136  1  0
 36154  1  0
 37132  1  0
 37142  1  0
 37165  1  0
 38133  1  0
 38151  1  0
 38168  1  0
 58259  1  0
 58268  1  0
 59262  1  0
 59270  1  0
 60263  1  0
 60271  1  0
 61265  1  0
 61273  1  0
 62267  1  0
 62275  1  0
 63277  1  0
 63282  1  0
 64279  1  0
 64285  1  0
 65283  1  0
 65287  1  0
 66286  1  0
 66288  1  0
253 67  1  1
254 68  1  1
255 69  1  6
256 70  1  6
 71292  1  0
 71299  1  0
258 72  1  6
 73295  1  0
 73297  1  0
269 74  1  1
 75298  1  0
 75304  1  0
272 76  1  1
276 77  1  1
257 78  1  1
 78361  1  0
260 79  1  1
 79363  1  0
261 80  1  6
 80364  1  0
 81307  1  0
 81312  1  0
264 82  1  6
 82366  1  0
266 83  1  6
 83370  1  0
281 84  1  6
274 85  1  1
 85373  1  0
290 86  1  6
289 87  1  6
 88300  1  0
 89302  1  0
278 90  1  1
 90375  1  0
 91305  1  0
280 92  1  1
 92379  1  0
 93314  1  0
 93317  1  0
 94306  1  0
 95303  1  0
284 96  1  6
 96383  1  0
 97309  1  0
294 98  1  1
301 99  1  6
100310  1  0
101316  1  0
102320  1  0
102324  1  0
291103  1  6
103386  1  0
293104  1  6
104387  1  0
105313  1  0
106318  1  0
296107  1  1
107391  1  0
311108  1  1
308109  1  6
109398  1  0
110331  1  0
110333  1  0
111325  1  0
112329  1  0
112334  1  0
113323  1  0
319114  1  6
115322  1  0
315116  1  1
116406  1  0
326117  1  1
118332  1  0
321119  1  6
119412  1  0
327120  1  6
121340  1  0
122355  1  0
122365  1  0
328123  1  1
123425  1  0
330124  1  6
124429  1  0
125353  1  0
132360  1  0
351133  1  1
136385  1  0
137392  1  0
137395  1  0
356140  1  1
140449  1  0
384142  1  1
388145  1  1
145455  1  0
148380  2  0
149420  1  0
149435  1  0
151440  1  0
152394  2  0
153396  2  0
155399  2  0
156400  2  0
157401  2  0
158403  2  0
428159  1  1
159461  1  0
160409  2  0
161411  2  0
424162  1  1
163426  1  0
164415  2  0
166419  2  0
167423  2  0
169441  2  0
170443  2  0
171446  2  0
172450  2  0
173452  2  0
174458  2  0
175460  2  0
176463  2  0
268177  1  6
177335  1  0
177341  1  0
270178  1  6
178336  1  0
178343  1  0
271179  1  1
179337  1  0
179344  1  0
273180  1  1
180339  1  0
180347  1  0
275181  1  1
181338  1  0
181348  1  0
282182  1  6
182342  1  0
182350  1  0
285183  1  6
183345  1  0
183352  1  0
287184  1  6
184346  1  0
184354  1  0
288185  1  1
185349  1  0
185357  1  0
297186  1  1
186358  1  0
186372  1  0
304187  1  6
187369  1  0
187377  1  0
299188  1  1
188380  1  0
188381  1  0
312189  1  1
189390  1  0
189394  1  0
317190  1  6
190396  1  0
190397  1  0
324191  1  1
191403  1  0
191404  1  0
334192  1  1
192415  1  0
192416  1  0
333193  1  6
193417  1  0
193419  1  0
194341  2  0
194359  1  0
195343  2  0
195362  1  0
196344  2  0
196367  1  0
197348  2  0
197368  1  0
198347  2  0
198371  1  0
199350  2  0
199374  1  0
200352  2  0
200376  1  0
201354  2  0
201378  1  0
202335  1  0
202413  2  0
203357  2  0
203382  1  0
204336  1  0
204414  2  0
205338  1  0
205418  2  0
206337  1  0
206433  2  0
207339  1  0
207434  2  0
208372  2  0
208389  1  0
209346  1  0
209427  2  0
210342  1  0
210436  2  0
365211  1  6
211442  1  0
211443  1  0
212349  1  0
212431  2  0
213345  1  0
213437  2  0
214377  2  0
214393  1  0
215380  1  0
215423  1  0
216358  1  0
216444  2  0
217369  1  0
217448  2  0
218399  1  0
218413  1  0
219400  1  0
219414  1  0
220401  1  0
220418  1  0
221396  1  0
221441  1  0
395222  1  6
222452  1  0
222453  1  0
223409  1  0
223427  1  0
224411  1  0
224431  1  0
225394  1  0
225439  2  0
226403  1  0
226446  1  0
227402  2  0
227433  1  0
228405  2  0
228434  1  0
229407  2  0
229436  1  0
230410  2  0
230437  1  0
231415  1  0
231450  1  0
232402  1  0
233405  1  0
234422  2  0
234444  1  0
235407  1  0
236430  2  0
236448  1  0
237410  1  0
238419  1  0
238451  2  0
239413  1  0
435240  1  6
240458  1  0
240459  1  0
241414  1  0
242418  1  0
243422  1  0
244427  1  0
245430  1  0
246431  1  0
247439  1  0
248443  1  0
248456  2  0
249452  1  0
249460  1  0
250451  1  0
251458  1  0
251463  1  0
252456  1  0
253257  1  0
253259  1  0
254260  1  0
254262  1  0
255261  1  0
255263  1  0
256264  1  0
256265  1  0
257268  1  0
258266  1  0
258267  1  0
259300  1  6
260270  1  0
261271  1  0
262303  1  6
263302  1  1
264273  1  0
265305  1  1
266275  1  0
267306  1  1
269274  1  0
269277  1  0
272278  1  0
272279  1  0
274282  1  0
276280  1  0
276283  1  0
277310  1  6
278285  1  0
279309  1  6
280287  1  0
281284  1  0
281286  1  0
283313  1  6
284288  1  0
286316  1  1
289292  1  0
289293  1  0
290291  1  0
290295  1  0
291297  1  0
292318  1  1
293299  1  0
294296  1  0
294298  1  0
295322  1  1
296304  1  0
298323  1  6
301307  1  0
301308  1  0
307325  1  1
308312  1  0
311314  1  0
311315  1  0
314332  1  6
315317  1  0
319320  1  0
319321  1  0
320340  1  1
321324  1  0
326328  1  0
326331  1  0
327329  1  0
327330  1  0
328333  1  0
329353  1  1
330334  1  0
331360  1  6
335359  2  0
336362  2  0
337367  2  0
338368  2  0
339371  2  0
342374  2  0
345376  2  0
346378  2  0
349382  2  0
351355  1  0
351356  1  0
355385  1  6
356365  1  0
358389  2  0
359399  1  0
362400  1  0
367402  1  0
368401  1  0
369393  2  0
371405  1  0
374407  1  0
376410  1  0
378409  1  0
381408  2  0
382411  1  0
384388  1  0
384392  1  0
388395  1  0
389422  1  0
390421  2  0
392426  1  6
393430  1  0
397432  2  0
404438  2  0
408423  1  0
416445  2  0
417447  2  0
420424  1  0
420440  1  6
421439  1  0
424428  1  0
428435  1  0
432441  1  0
438446  1  0
442454  2  0
445450  1  0
447451  1  0
453457  2  0
454456  1  0
457460  1  0
459462  2  0
462463  1  0
M  CHG  8  15  -1  39   1  40   1  41   1  42   1  43   1  44   1  45   1
M  CHG  8  46   1  47   1  48   1  49   1  50   1  51   1  52   1  53   1
M  CHG  8  54   1  55   1  56   1  57   1 126  -1 127  -1 128  -1 129  -1
M  CHG  8 130  -1 131  -1 134  -1 135  -1 138  -1 139  -1 141  -1 143  -1
M  CHG  6 144  -1 146  -1 150  -1 154  -1 165  -1 168  -1
M  END
