 
     RDKit          2D

 60 63  0  0  1  0  0  0  0  0999 V2000
   11.4100  -16.3100    0.0000 C   0  0  0  0  0  0  0  0  0  0  0  0
   11.4100  -17.7100    0.0000 C   0  0  0  0  0  0  0  0  0  0  0  0
   12.6224  -18.4100    0.0000 C   0  0  0  0  0  0  0  0  0  0  0  0
   13.8349  -17.7100    0.0000 C   0  0  0  0  0  0  0  0  0  0  0  0
   13.8349  -16.3100    0.0000 C   0  0  0  0  0  0  0  0  0  0  0  0
   12.6224  -15.6100    0.0000 C   0  0  0  0  0  0  0  0  0  0  0  0
   16.2597  -17.7100    0.0000 C   0  0  0  0  0  0  0  0  0  0  0  0
   16.2597  -16.3100    0.0000 N   0  0  0  0  0  0  0  0  0  0  0  0
   15.0473  -15.6100    0.0000 C   0  0  0  0  0  0  0  0  0  0  0  0
   17.4722  -18.4100    0.0000 N   0  0  0  0  0  0  0  0  0  0  0  0
   18.6846  -17.7100    0.0000 C   0  0  0  0  0  0  0  0  0  0  0  0
   18.6846  -16.3100    0.0000 C   0  0  0  0  0  0  0  0  0  0  0  0
   17.4722  -15.6100    0.0000 C   0  0  0  0  0  0  0  0  0  0  0  0
   12.6224  -14.2102    0.0000 C   0  0  0  0  0  0  0  0  0  0  0  0
   12.6224  -12.8102    0.0000 N   0  0  0  0  0  0  0  0  0  0  0  0
   15.0326  -18.4186    0.0000 O   0  0  0  0  0  0  0  0  0  0  0  0
   17.4722  -19.8097    0.0000 C   0  0  0  0  0  0  0  0  0  0  0  0
   19.9011  -18.4123    0.0000 O   0  0  0  0  0  0  0  0  0  0  0  0
   17.4722  -14.2103    0.0000 N   0  0  0  0  0  0  0  0  0  0  0  0
   18.7054  -13.4980    0.0000 C   0  0  0  0  0  0  0  0  0  0  0  0
   18.7052  -12.0980    0.0000 C   0  0  0  0  0  0  0  0  0  0  0  0
   17.4926  -11.3982    0.0000 C   0  0  0  0  0  0  0  0  0  0  0  0
   16.2594  -12.1105    0.0000 C   0  0  0  0  0  0  0  0  0  0  0  0
   16.2596  -13.5105    0.0000 C   0  0  0  0  0  0  0  0  0  0  0  0
   15.0322  -11.4021    0.0000 N   0  0  0  0  0  0  0  0  0  0  0  0
   23.9402  -15.6465    0.0000 C   0  0  0  0  0  0  0  0  0  0  0  0
   22.7305  -16.3378    0.0000 C   0  0  0  0  0  0  0  0  0  0  0  0
   25.1564  -16.3378    0.0000 C   0  0  0  0  0  0  0  0  0  0  0  0
   23.9339  -14.2511    0.0000 C   0  0  0  0  0  0  0  0  0  0  0  0
   22.7305  -17.7461    0.0000 C   0  0  0  0  0  0  0  0  0  0  0  0
   25.1564  -17.7461    0.0000 C   0  0  0  0  0  0  0  0  0  0  0  0
   25.1371  -13.5534    0.0000 O   0  0  0  0  0  0  0  0  0  0  0  0
   22.7240  -13.5599    0.0000 O   0  0  0  0  0  0  0  0  0  0  0  0
   23.9402  -18.4565    0.0000 C   0  0  0  0  0  0  0  0  0  0  0  0
   36.4918  -16.3605    0.0000 C   0  0  0  0  0  0  0  0  0  0  0  0
   35.2747  -15.6584    0.0000 C   0  0  0  0  0  0  0  0  0  0  0  0
   36.5002  -17.7636    0.0000 C   0  0  0  0  0  0  0  0  0  0  0  0
   37.8328  -15.9323    0.0000 S   0  0  0  0  0  0  0  0  0  0  0  0
   34.0636  -16.3605    0.0000 C   0  0  0  0  0  0  0  0  0  0  0  0
   37.8315  -18.1968    0.0000 N   0  0  0  0  0  0  0  0  0  0  0  0
   35.3724  -18.5929    0.0000 O   0  0  0  0  0  0  0  0  0  0  0  0
   38.6556  -17.0654    0.0000 C   0  0  0  0  0  0  0  0  0  0  0  0
   32.8527  -15.6584    0.0000 C   0  0  0  0  0  0  0  0  0  0  0  0
   34.0636  -17.7589    0.0000 C   0  0  0  0  0  0  0  0  0  0  0  0
   40.0558  -17.0643    0.0000 O   0  0  0  0  0  0  0  0  0  0  0  0
   31.6415  -16.3605    0.0000 C   0  0  0  0  0  0  0  0  0  0  0  0
   32.8527  -18.4610    0.0000 C   0  0  0  0  0  0  0  0  0  0  0  0
   31.6415  -17.7589    0.0000 C   0  0  0  0  0  0  0  0  0  0  0  0
   30.4304  -18.4610    0.0000 O   0  0  0  0  0  0  0  0  0  0  0  0
   29.2134  -17.7589    0.0000 C   0  0  0  0  0  0  0  0  0  0  0  0
   28.0023  -18.4610    0.0000 C   0  0  0  0  0  0  0  0  0  0  0  0
   26.7911  -17.7589    0.0000 C   0  0  0  0  0  0  0  0  0  0  0  0
   26.7911  -16.3664    0.0000 C   0  0  0  0  0  0  0  0  0  0  0  0
   25.5800  -18.4668    0.0000 N   0  0  0  0  0  0  0  0  0  0  0  0
   25.5800  -15.6701    0.0000 C   0  0  0  0  0  0  0  0  0  0  0  0
   24.3689  -17.7647    0.0000 C   0  0  0  0  0  0  0  0  0  0  0  0
   24.3689  -16.3664    0.0000 C   0  0  0  0  0  0  0  0  0  0  0  0
   23.1580  -15.6701    0.0000 C   0  0  0  0  0  0  0  0  0  0  0  0
   21.9409  -16.3664    0.0000 C   0  0  0  0  0  0  0  0  0  0  0  0
   42.2119  -18.3454    0.0000 Cl  0  0  0  0  0  0  0  0  0  0  0  0
  1  2  2  0
  2  3  1  0
  3  4  2  0
  4  5  1  0
  5  6  2  0
  1  6  1  0
  7  8  1  0
  8  9  1  0
  5  9  1  0
  7 10  1  0
 10 11  1  0
 11 12  1  0
 12 13  2  0
  8 13  1  0
  6 14  1  0
 14 15  3  0
  7 16  2  0
 10 17  1  0
 11 18  2  0
 13 19  1  0
 19 20  1  0
 20 21  1  0
 21 22  1  0
 22 23  1  0
 23 24  1  0
 19 24  1  0
 23 25  1  6
 26 27  2  0
 26 28  1  0
 26 29  1  0
 27 30  1  0
 28 31  2  0
 29 32  1  0
 29 33  2  0
 30 34  2  0
 31 34  1  0
 35 36  1  0
 35 37  1  0
 35 38  1  0
 36 39  1  0
 37 40  1  0
 37 41  2  0
 38 42  1  0
 39 43  2  0
 39 44  1  0
 42 45  2  0
 43 46  1  0
 44 47  2  0
 46 48  2  0
 48 49  1  0
 49 50  1  0
 50 51  1  0
 51 52  1  0
 52 53  2  0
 52 54  1  0
 53 55  1  0
 54 56  2  0
 55 57  2  0
 57 58  1  0
 58 59  1  0
 40 42  1  0
 47 48  1  0
 56 57  1  0
M  END
