 
     RDKit          2D

 67 70  0  0  0  0  0  0  0  0999 V2000
   11.7600  -17.3600    0.0000 N   0  0  0  0  0  0  0  0  0  0  0  0
   10.5700  -16.5900    0.0000 C   0  0  0  0  0  0  0  0  0  0  0  0
   11.3400  -18.7600    0.0000 C   0  0  0  0  0  0  0  0  0  0  0  0
   12.9500  -16.6600    0.0000 C   0  0  0  0  0  0  0  0  0  0  0  0
    9.4500  -17.4300    0.0000 C   0  0  0  0  0  0  0  0  0  0  0  0
   10.5700  -15.2600    0.0000 O   0  0  0  0  0  0  0  0  0  0  0  0
    9.8700  -18.7600    0.0000 C   0  0  0  0  0  0  0  0  0  0  0  0
   14.2100  -17.4300    0.0000 N   0  0  0  0  0  0  0  0  0  0  0  0
   12.9500  -15.2600    0.0000 O   0  0  0  0  0  0  0  0  0  0  0  0
    8.3300  -16.8000    0.0000 C   0  0  0  0  0  0  0  0  0  0  0  0
    9.1000  -19.8800    0.0000 C   0  0  0  0  0  0  0  0  0  0  0  0
   15.4000  -16.7300    0.0000 C   0  0  0  0  0  0  0  0  0  0  0  0
    7.2800  -17.4300    0.0000 C   0  0  0  0  0  0  0  0  0  0  0  0
   16.5900  -17.4300    0.0000 C   0  0  0  0  0  0  0  0  0  0  0  0
   17.8500  -16.7300    0.0000 C   0  0  0  0  0  0  0  0  0  0  0  0
   17.8500  -15.2600    0.0000 C   0  0  0  0  0  0  0  0  0  0  0  0
   19.0400  -17.4300    0.0000 C   0  0  0  0  0  0  0  0  0  0  0  0
   19.0400  -14.5600    0.0000 C   0  0  0  0  0  0  0  0  0  0  0  0
   20.3000  -16.7300    0.0000 C   0  0  0  0  0  0  0  0  0  0  0  0
   20.3000  -15.2600    0.0000 C   0  0  0  0  0  0  0  0  0  0  0  0
   21.4900  -14.5600    0.0000 S   0  0  0  0  0  0  0  0  0  0  0  0
   22.7500  -15.2600    0.0000 N   0  0  0  0  0  0  0  0  0  0  0  0
   23.9400  -14.5600    0.0000 C   0  0  0  0  0  0  0  0  0  0  0  0
   25.1300  -15.2600    0.0000 N   0  0  0  0  0  0  0  0  0  0  0  0
   23.9400  -13.1600    0.0000 O   0  0  0  0  0  0  0  0  0  0  0  0
   26.3900  -14.5600    0.0000 C   0  0  0  0  0  0  0  0  0  0  0  0
   26.3900  -13.1600    0.0000 C   0  0  0  0  0  0  0  0  0  0  0  0
   27.5800  -15.2600    0.0000 C   0  0  0  0  0  0  0  0  0  0  0  0
   27.5800  -12.4600    0.0000 C   0  0  0  0  0  0  0  0  0  0  0  0
   28.8400  -14.5600    0.0000 C   0  0  0  0  0  0  0  0  0  0  0  0
   28.8400  -13.1600    0.0000 C   0  0  0  0  0  0  0  0  0  0  0  0
   30.0300  -12.4600    0.0000 C   0  0  0  0  0  0  0  0  0  0  0  0
   22.1900  -13.3476    0.0000 O   0  0  0  0  0  0  0  0  0  0  0  0
   20.7900  -13.3476    0.0000 O   0  0  0  0  0  0  0  0  0  0  0  0
   36.8941  -13.6110    0.0000 C   0  0  0  0  0  0  0  0  0  0  0  0
   35.6829  -12.9146    0.0000 C   0  0  0  0  0  0  0  0  0  0  0  0
   38.2201  -13.1736    0.0000 S   0  0  0  0  0  0  0  0  0  0  0  0
   36.9094  -15.0237    0.0000 C   0  0  0  0  0  0  0  0  0  0  0  0
   34.4717  -13.6110    0.0000 C   0  0  0  0  0  0  0  0  0  0  0  0
   39.0590  -14.2996    0.0000 C   0  0  0  0  0  0  0  0  0  0  0  0
   38.2452  -15.4388    0.0000 N   0  0  0  0  0  0  0  0  0  0  0  0
   35.7838  -15.8568    0.0000 O   0  0  0  0  0  0  0  0  0  0  0  0
   33.2605  -12.9146    0.0000 C   0  0  0  0  0  0  0  0  0  0  0  0
   34.4717  -15.0153    0.0000 C   0  0  0  0  0  0  0  0  0  0  0  0
   40.4533  -14.2854    0.0000 O   0  0  0  0  0  0  0  0  0  0  0  0
   32.0493  -13.6110    0.0000 C   0  0  0  0  0  0  0  0  0  0  0  0
   33.2605  -15.7115    0.0000 C   0  0  0  0  0  0  0  0  0  0  0  0
   32.0493  -15.0153    0.0000 C   0  0  0  0  0  0  0  0  0  0  0  0
   30.8323  -15.7115    0.0000 O   0  0  0  0  0  0  0  0  0  0  0  0
   29.6211  -15.0153    0.0000 C   0  0  0  0  0  0  0  0  0  0  0  0
   28.4099  -15.7115    0.0000 C   0  0  0  0  0  0  0  0  0  0  0  0
   27.1987  -15.0153    0.0000 N   0  0  0  0  0  0  0  0  0  0  0  0
   25.9875  -15.7115    0.0000 C   0  0  0  0  0  0  0  0  0  0  0  0
   27.1987  -13.6110    0.0000 C   0  0  0  0  0  0  0  0  0  0  0  0
   25.9933  -17.1217    0.0000 C   0  0  0  0  0  0  0  0  0  0  0  0
   24.7763  -15.0211    0.0000 N   0  0  0  0  0  0  0  0  0  0  0  0
   24.7763  -17.8179    0.0000 C   0  0  0  0  0  0  0  0  0  0  0  0
   23.5651  -15.7174    0.0000 C   0  0  0  0  0  0  0  0  0  0  0  0
   23.5651  -17.1217    0.0000 C   0  0  0  0  0  0  0  0  0  0  0  0
   34.3185  -20.2162    0.0000 C   0  0  0  0  0  0  0  0  0  0  0  0
   33.6434  -19.0515    0.0000 C   0  0  0  0  0  0  0  0  0  0  0  0
   33.7189  -21.4564    0.0000 O   0  0  0  0  0  0  0  0  0  0  0  0
   35.6691  -20.2099    0.0000 O   0  0  0  0  0  0  0  0  0  0  0  0
   32.0265  -19.0577    0.0000 C   0  0  0  0  0  0  0  0  0  0  0  0
   31.3575  -20.2285    0.0000 C   0  0  0  0  0  0  0  0  0  0  0  0
   30.0069  -20.2285    0.0000 O   0  0  0  0  0  0  0  0  0  0  0  0
   32.0390  -21.4625    0.0000 O   0  0  0  0  0  0  0  0  0  0  0  0
  1  2  1  0
  1  3  1  0
  1  4  1  0
  2  5  1  0
  2  6  2  0
  3  7  1  0
  4  8  1  0
  4  9  2  0
  5 10  1  0
  7 11  1  0
  8 12  1  0
 10 13  1  0
 12 14  1  0
 14 15  1  0
 15 16  2  0
 15 17  1  0
 16 18  1  0
 17 19  2  0
 18 20  2  0
 20 21  1  0
 21 22  1  0
 22 23  1  0
 23 24  1  0
 23 25  2  0
 24 26  1  0
 26 27  1  0
 26 28  1  0
 27 29  1  0
 28 30  1  0
 29 31  1  0
 31 32  1  0
  5  7  2  0
 19 20  1  0
 30 31  1  0
 21 33  2  0
 21 34  2  0
 35 36  1  0
 35 37  1  0
 35 38  1  0
 36 39  1  0
 37 40  1  0
 38 41  1  0
 38 42  2  0
 39 43  2  0
 39 44  1  0
 40 45  2  0
 43 46  1  0
 44 47  2  0
 46 48  2  0
 48 49  1  0
 49 50  1  0
 50 51  1  0
 51 52  1  0
 52 53  1  0
 52 54  1  0
 53 55  2  0
 53 56  1  0
 55 57  1  0
 56 58  2  0
 57 59  2  0
 40 41  1  0
 47 48  1  0
 58 59  1  0
 60 61  1  0
 60 62  1  0
 60 63  2  0
 61 64  2  0
 64 65  1  0
 65 66  1  0
 65 67  2  0
M  END
