 
     RDKit          2D

 38 40  0  0  0  0  0  0  0  0999 V2000
   25.1352  -16.9986    0.0000 C   0  0  0  0  0  0  0  0  0  0  0  0
   23.9013  -16.3004    0.0000 C   0  0  0  0  0  0  0  0  0  0  0  0
   25.1469  -18.3372    0.0000 C   0  0  0  0  0  0  0  0  0  0  0  0
   26.3341  -16.2944    0.0000 C   0  0  0  0  0  0  0  0  0  0  0  0
   22.6849  -17.0102    0.0000 C   0  0  0  0  0  0  0  0  0  0  0  0
   23.9013  -19.1114    0.0000 N   0  0  0  0  0  0  0  0  0  0  0  0
   27.5389  -16.9812    0.0000 O   0  0  0  0  0  0  0  0  0  0  0  0
   26.3108  -14.9035    0.0000 O   0  0  0  0  0  0  0  0  0  0  0  0
   22.6908  -18.4130    0.0000 C   0  0  0  0  0  0  0  0  0  0  0  0
   26.2681  -21.4649    0.0000 C   0  0  0  0  0  0  0  0  0  0  0  0
   25.0617  -20.7655    0.0000 C   0  0  0  0  0  0  0  0  0  0  0  0
   26.2624  -22.8577    0.0000 C   0  0  0  0  0  0  0  0  0  0  0  0
   27.4745  -20.7713    0.0000 C   0  0  0  0  0  0  0  0  0  0  0  0
   25.0617  -19.3726    0.0000 O   0  0  0  0  0  0  0  0  0  0  0  0
   23.8497  -21.4649    0.0000 C   0  0  0  0  0  0  0  0  0  0  0  0
   27.4628  -23.5627    0.0000 C   0  0  0  0  0  0  0  0  0  0  0  0
   25.0617  -23.5570    0.0000 C   0  0  0  0  0  0  0  0  0  0  0  0
   27.4803  -19.3785    0.0000 C   0  0  0  0  0  0  0  0  0  0  0  0
   28.6808  -21.4766    0.0000 C   0  0  0  0  0  0  0  0  0  0  0  0
   23.8555  -18.6733    0.0000 C   0  0  0  0  0  0  0  0  0  0  0  0
   23.8497  -22.8577    0.0000 C   0  0  0  0  0  0  0  0  0  0  0  0
   28.6750  -22.8694    0.0000 C   0  0  0  0  0  0  0  0  0  0  0  0
   22.6491  -19.3726    0.0000 C   0  0  0  0  0  0  0  0  0  0  0  0
   23.8613  -17.2805    0.0000 O   0  0  0  0  0  0  0  0  0  0  0  0
   22.6433  -23.5570    0.0000 C   0  0  0  0  0  0  0  0  0  0  0  0
   21.4427  -18.6733    0.0000 C   0  0  0  0  0  0  0  0  0  0  0  0
   22.6491  -20.7655    0.0000 C   0  0  0  0  0  0  0  0  0  0  0  0
   20.2364  -19.3669    0.0000 C   0  0  0  0  0  0  0  0  0  0  0  0
   29.8734  -20.7959    0.0000 C   0  0  0  0  0  0  0  0  0  0  0  0
   28.7139  -18.6619    0.0000 C   0  0  0  0  0  0  0  0  0  0  0  0
   28.7173  -17.2654    0.0000 C   0  0  0  0  0  0  0  0  0  0  0  0
   29.9266  -16.5712    0.0000 O   0  0  0  0  0  0  0  0  0  0  0  0
   29.9300  -15.1747    0.0000 C   0  0  0  0  0  0  0  0  0  0  0  0
   28.7223  -14.4735    0.0000 C   0  0  0  0  0  0  0  0  0  0  0  0
   27.5132  -15.1677    0.0000 C   0  0  0  0  0  0  0  0  0  0  0  0
   27.5097  -16.5641    0.0000 C   0  0  0  0  0  0  0  0  0  0  0  0
   31.1392  -14.4805    0.0000 O   0  0  0  0  0  0  0  0  0  0  0  0
   26.2978  -14.4619    0.0000 O   0  0  0  0  0  0  0  0  0  0  0  0
  1  2  2  0
  1  3  1  0
  1  4  1  0
  2  5  1  0
  3  6  2  0
  4  7  1  0
  4  8  2  0
  5  9  2  0
  6  9  1  0
 10 11  1  0
 10 12  1  6
 10 13  1  0
 11 14  1  6
 11 15  1  0
 12 16  1  0
 12 17  2  0
 13 18  1  1
 13 19  1  0
 14 20  1  0
 15 21  1  0
 16 22  2  0
 20 23  1  0
 20 24  2  0
 21 25  1  6
 23 26  1  0
 23 27  1  1
 26 28  1  0
 17 21  1  0
 19 22  1  0
 19 29  1  1
 18 30  1  0
 31 30  1  6
 31 32  1  0
 32 33  1  0
 33 34  1  0
 34 35  1  0
 35 36  1  0
 31 36  1  0
 33 37  2  0
 35 38  1  1
M  END
