 
     RDKit          2D

129134  0  0  0  0  0  0  0  0999 V2000
   14.6300  -20.7200    0.0000 C   0  0  0  0  0  0  0  0  0  0  0  0
   14.6300  -22.1200    0.0000 C   0  0  0  0  0  0  0  0  0  0  0  0
   15.8424  -22.8200    0.0000 C   0  0  0  0  0  0  0  0  0  0  0  0
   17.0549  -22.1200    0.0000 C   0  0  0  0  0  0  0  0  0  0  0  0
   17.0549  -20.7200    0.0000 C   0  0  0  0  0  0  0  0  0  0  0  0
   15.8424  -20.0200    0.0000 C   0  0  0  0  0  0  0  0  0  0  0  0
   18.3864  -22.5526    0.0000 N   0  0  0  0  0  0  0  0  0  0  0  0
   19.2093  -21.4200    0.0000 C   0  0  0  0  0  0  0  0  0  0  0  0
   18.3864  -20.2874    0.0000 N   0  0  0  0  0  0  0  0  0  0  0  0
   20.5800  -21.4200    0.0000 S   0  0  0  0  0  0  0  0  0  0  0  0
   13.4176  -22.8200    0.0000 O   0  0  0  0  0  0  0  0  0  0  0  0
   12.2221  -22.1296    0.0000 C   0  0  0  0  0  0  0  0  0  0  0  0
   21.2800  -22.6324    0.0000 C   0  0  0  0  0  0  0  0  0  0  0  0
   21.2800  -20.2076    0.0000 O   0  0  0  0  0  0  0  0  0  0  0  0
   22.6798  -22.6324    0.0000 C   0  0  0  0  0  0  0  0  0  0  0  0
   23.3703  -23.8280    0.0000 C   0  0  0  0  0  0  0  0  0  0  0  0
   24.7703  -23.8278    0.0000 C   0  0  0  0  0  0  0  0  0  0  0  0
   25.4701  -22.6153    0.0000 C   0  0  0  0  0  0  0  0  0  0  0  0
   24.7797  -21.4198    0.0000 C   0  0  0  0  0  0  0  0  0  0  0  0
   23.3797  -21.4199    0.0000 N   0  0  0  0  0  0  0  0  0  0  0  0
   26.8800  -22.6152    0.0000 C   0  0  0  0  0  0  0  0  0  0  0  0
   25.4610  -25.0232    0.0000 O   0  0  0  0  0  0  0  0  0  0  0  0
   26.8796  -25.0232    0.0000 C   0  0  0  0  0  0  0  0  0  0  0  0
   22.6849  -25.0152    0.0000 C   0  0  0  0  0  0  0  0  0  0  0  0
   24.1709  -17.2043    0.0000 C   0  0  0  0  0  0  0  0  0  0  0  0
   24.1709  -15.8400    0.0000 C   0  0  0  0  0  0  0  0  0  0  0  0
   22.9859  -17.8807    0.0000 C   0  0  0  0  0  0  0  0  0  0  0  0
   25.6666  -18.4812    0.0000 O   0  0  0  0  0  0  0  0  0  0  0  0
   22.9859  -15.1580    0.0000 C   0  0  0  0  0  0  0  0  0  0  0  0
   22.9859  -19.2450    0.0000 C   0  0  0  0  0  0  0  0  0  0  0  0
   21.9450  -16.9275    0.0000 C   0  0  0  0  0  0  0  0  0  0  0  0
   27.4458  -17.6943    0.0000 C   0  0  0  0  0  0  0  0  0  0  0  0
   22.9859  -13.7880    0.0000 C   0  0  0  0  0  0  0  0  0  0  0  0
   23.7258  -20.6034    0.0000 O   0  0  0  0  0  0  0  0  0  0  0  0
   21.8123  -19.9272    0.0000 C   0  0  0  0  0  0  0  0  0  0  0  0
   28.5906  -18.4120    0.0000 C   0  0  0  0  0  0  0  0  0  0  0  0
   27.4113  -16.3303    0.0000 O   0  0  0  0  0  0  0  0  0  0  0  0
   21.8123  -13.1116    0.0000 C   0  0  0  0  0  0  0  0  0  0  0  0
   24.1709  -13.1116    0.0000 C   0  0  0  0  0  0  0  0  0  0  0  0
   24.7548  -21.7190    0.0000 C   0  0  0  0  0  0  0  0  0  0  0  0
   20.6273  -19.2450    0.0000 C   0  0  0  0  0  0  0  0  0  0  0  0
   21.8123  -21.2912    0.0000 C   0  0  0  0  0  0  0  0  0  0  0  0
   29.7920  -17.7775    0.0000 C   0  0  0  0  0  0  0  0  0  0  0  0
   28.5500  -19.7801    0.0000 O   0  0  0  0  0  0  0  0  0  0  0  0
   28.6878  -15.6932    0.0000 C   0  0  0  0  0  0  0  0  0  0  0  0
   20.6273  -13.7880    0.0000 C   0  0  0  0  0  0  0  0  0  0  0  0
   21.8123  -11.7473    0.0000 O   0  0  0  0  0  0  0  0  0  0  0  0
   24.7548  -23.0776    0.0000 C   0  0  0  0  0  0  0  0  0  0  0  0
   25.9398  -21.0369    0.0000 O   0  0  0  0  0  0  0  0  0  0  0  0
   20.6273  -17.8807    0.0000 O   0  0  0  0  0  0  0  0  0  0  0  0
   19.5695  -20.1930    0.0000 O   0  0  0  0  0  0  0  0  0  0  0  0
   29.8379  -16.4196    0.0000 C   0  0  0  0  0  0  0  0  0  0  0  0
   28.7389  -14.3326    0.0000 C   0  0  0  0  0  0  0  0  0  0  0  0
   20.6273  -15.1580    0.0000 C   0  0  0  0  0  0  0  0  0  0  0  0
   19.4481  -13.1116    0.0000 C   0  0  0  0  0  0  0  0  0  0  0  0
   25.9398  -23.7654    0.0000 C   0  0  0  0  0  0  0  0  0  0  0  0
   27.1133  -21.7190    0.0000 C   0  0  0  0  0  0  0  0  0  0  0  0
   19.4481  -17.2043    0.0000 C   0  0  0  0  0  0  0  0  0  0  0  0
   19.4481  -15.8400    0.0000 C   0  0  0  0  0  0  0  0  0  0  0  0
   21.8123  -15.8400    0.0000 O   0  0  0  0  0  0  0  0  0  0  0  0
   27.1133  -23.0776    0.0000 C   0  0  0  0  0  0  0  0  0  0  0  0
   25.9398  -25.0892    0.0000 O   0  0  0  0  0  0  0  0  0  0  0  0
   28.2983  -21.0428    0.0000 C   0  0  0  0  0  0  0  0  0  0  0  0
   18.2688  -17.8807    0.0000 C   0  0  0  0  0  0  0  0  0  0  0  0
   18.1995  -16.4066    0.0000 C   0  0  0  0  0  0  0  0  0  0  0  0
   18.1995  -15.1522    0.0000 O   0  0  0  0  0  0  0  0  0  0  0  0
   28.2983  -23.7654    0.0000 O   0  0  0  0  0  0  0  0  0  0  0  0
   18.3035  -19.0021    0.0000 C   0  0  0  0  0  0  0  0  0  0  0  0
   25.3593  -16.5254    0.0000 C   0  0  0  0  0  0  0  0  0  0  0  0
   27.1615  -25.7951    0.0000 C   0  0  0  0  0  0  0  0  0  0  0  0
   24.7273  -24.4654    0.0000 C   0  0  0  0  0  0  0  0  0  0  0  0
   24.8709  -14.6276    0.0000 O   0  0  0  0  0  0  0  0  0  0  0  0
   26.2709  -14.6276    0.0000 C   0  0  0  0  0  0  0  0  0  0  0  0
   30.9997  -18.5339    0.0000 N   0  0  0  0  0  0  0  0  0  0  0  0
   32.2377  -17.8772    0.0000 C   0  0  0  0  0  0  0  0  0  0  0  0
   31.0187  -19.9487    0.0000 C   0  0  0  0  0  0  0  0  0  0  0  0
   24.5313  -17.0264    0.0000 C   0  0  0  0  0  0  0  0  0  0  0  0
   24.5313  -18.4300    0.0000 C   0  0  0  0  0  0  0  0  0  0  0  0
   25.9349  -18.4300    0.0000 N   0  0  0  0  0  0  0  0  0  0  0  0
   25.9349  -17.0264    0.0000 C   0  0  0  0  0  0  0  0  0  0  0  0
   27.2683  -18.8510    0.0000 C   0  0  0  0  0  0  0  0  0  0  0  0
   28.1103  -17.7281    0.0000 C   0  0  0  0  0  0  0  0  0  0  0  0
   27.2683  -16.6053    0.0000 S   0  0  0  0  0  0  0  0  0  0  0  0
   29.0929  -18.7107    0.0000 C   0  0  0  0  0  0  0  0  0  0  0  0
   29.0929  -16.7456    0.0000 C   0  0  0  0  0  0  0  0  0  0  0  0
   27.7595  -20.1844    0.0000 C   0  0  0  0  0  0  0  0  0  0  0  0
   29.1630  -20.1844    0.0000 O   0  0  0  0  0  0  0  0  0  0  0  0
   26.9173  -21.3072    0.0000 O   0  0  0  0  0  0  0  0  0  0  0  0
   23.3383  -16.3246    0.0000 N   0  0  0  0  0  0  0  0  0  0  0  0
   22.1452  -17.0264    0.0000 C   0  0  0  0  0  0  0  0  0  0  0  0
   23.3383  -19.1317    0.0000 O   0  0  0  0  0  0  0  0  0  0  0  0
   22.1452  -18.4300    0.0000 O   0  0  0  0  0  0  0  0  0  0  0  0
   20.9268  -16.3295    0.0000 C   0  0  0  0  0  0  0  0  0  0  0  0
   19.7355  -17.0241    0.0000 C   0  0  0  0  0  0  0  0  0  0  0  0
   20.9268  -14.9295    0.0000 N   0  0  0  0  0  0  0  0  0  0  0  0
   18.5230  -16.3241    0.0000 C   0  0  0  0  0  0  0  0  0  0  0  0
   17.3106  -17.0241    0.0000 C   0  0  0  0  0  0  0  0  0  0  0  0
   17.3106  -18.4241    0.0000 C   0  0  0  0  0  0  0  0  0  0  0  0
   18.5230  -19.1241    0.0000 C   0  0  0  0  0  0  0  0  0  0  0  0
   19.7355  -18.4241    0.0000 C   0  0  0  0  0  0  0  0  0  0  0  0
   16.0891  -19.1295    0.0000 O   0  0  0  0  0  0  0  0  0  0  0  0
   34.0923  -18.2711    0.0000 O   0  0  0  0  0  0  0  0  0  0  0  0
   34.0923  -18.2711    0.0000 O   0  0  0  0  0  0  0  0  0  0  0  0
   34.0923  -18.2711    0.0000 O   0  0  0  0  0  0  0  0  0  0  0  0
   25.2700  -16.8000    0.0000 C   0  0  0  0  0  0  0  0  0  0  0  0
   25.2700  -18.2000    0.0000 C   0  0  0  0  0  0  0  0  0  0  0  0
   26.6700  -18.2000    0.0000 N   0  0  0  0  0  0  0  0  0  0  0  0
   26.6700  -16.8000    0.0000 C   0  0  0  0  0  0  0  0  0  0  0  0
   28.0000  -18.6200    0.0000 C   0  0  0  0  0  0  0  0  0  0  0  0
   28.8400  -17.5000    0.0000 C   0  0  0  0  0  0  0  0  0  0  0  0
   28.0000  -16.3800    0.0000 S   0  0  0  0  0  0  0  0  0  0  0  0
   29.8200  -18.4800    0.0000 C   0  0  0  0  0  0  0  0  0  0  0  0
   29.8200  -16.5200    0.0000 C   0  0  0  0  0  0  0  0  0  0  0  0
   28.4900  -20.0200    0.0000 C   0  0  0  0  0  0  0  0  0  0  0  0
   29.8900  -20.0200    0.0000 O   0  0  0  0  0  0  0  0  0  0  0  0
   27.6500  -21.1400    0.0000 O   0  0  0  0  0  0  0  0  0  0  0  0
   24.0800  -16.1000    0.0000 N   0  0  0  0  0  0  0  0  0  0  0  0
   22.8900  -16.8000    0.0000 C   0  0  0  0  0  0  0  0  0  0  0  0
   24.0800  -18.9000    0.0000 O   0  0  0  0  0  0  0  0  0  0  0  0
   22.8900  -18.2000    0.0000 O   0  0  0  0  0  0  0  0  0  0  0  0
   21.6300  -16.1000    0.0000 C   0  0  0  0  0  0  0  0  0  0  0  0
   20.4400  -16.8000    0.0000 C   0  0  0  0  0  0  0  0  0  0  0  0
   21.6300  -14.7000    0.0000 N   0  0  0  0  0  0  0  0  0  0  0  0
   19.2500  -16.1000    0.0000 C   0  0  0  0  0  0  0  0  0  0  0  0
   17.9900  -16.8000    0.0000 C   0  0  0  0  0  0  0  0  0  0  0  0
   17.9900  -18.2000    0.0000 C   0  0  0  0  0  0  0  0  0  0  0  0
   19.2500  -18.9000    0.0000 C   0  0  0  0  0  0  0  0  0  0  0  0
   20.4400  -18.2000    0.0000 C   0  0  0  0  0  0  0  0  0  0  0  0
   16.8000  -18.9000    0.0000 O   0  0  0  0  0  0  0  0  0  0  0  0
  1  2  2  0
  2  3  1  0
  3  4  2  0
  4  5  1  0
  5  6  2  0
  1  6  1  0
  4  7  1  0
  7  8  2  0
  8  9  1  0
  5  9  1  0
  8 10  1  0
  2 11  1  0
 11 12  1  0
 10 13  1  0
 10 14  2  0
 13 15  1  0
 15 16  2  0
 16 17  1  0
 17 18  2  0
 18 19  1  0
 19 20  2  0
 15 20  1  0
 18 21  1  0
 17 22  1  0
 22 23  1  0
 16 24  1  0
 25 26  1  0
 25 27  1  0
 25 28  1  6
 26 29  1  0
 27 30  1  0
 27 31  1  6
 32 28  1  6
 29 33  1  0
 30 34  1  6
 30 35  1  0
 32 36  1  0
 32 37  1  0
 33 38  1  0
 33 39  1  6
 40 34  1  6
 35 41  1  0
 35 42  1  1
 36 43  1  0
 36 44  1  1
 37 45  1  0
 38 46  1  0
 38 47  2  0
 40 48  1  0
 40 49  1  0
 41 50  1  0
 41 51  2  0
 43 52  1  0
 45 53  1  6
 46 54  1  0
 46 55  1  1
 48 56  1  0
 49 57  1  0
 50 58  1  0
 54 59  1  0
 54 60  1  1
 56 61  1  0
 56 62  1  0
 57 63  1  1
 58 64  1  6
 59 65  1  6
 59 66  1  0
 61 67  1  6
 64 68  1  0
 45 52  1  0
 57 61  1  0
 58 59  1  0
 26 69  1  6
 62 70  1  0
 56 71  1  1
 26 72  1  0
 72 73  1  0
 43 74  1  6
 74 75  1  0
 74 76  1  0
 77 78  1  0
 78 79  1  0
 79 80  1  0
 77 80  1  0
 79 81  1  0
 81 82  1  0
 82 83  1  0
 80 83  1  1
 82 84  1  0
 82 85  1  0
 81 86  1  6
 86 87  1  0
 86 88  2  0
 77 89  1  1
 89 90  1  0
 78 91  2  0
 90 92  2  0
 90 93  1  0
 93 94  1  0
 93 95  1  1
 94 96  2  0
 96 97  1  0
 97 98  2  0
 98 99  1  0
 99100  2  0
 94100  1  0
 98101  1  0
105106  1  0
106107  1  0
107108  1  0
105108  1  0
107109  1  0
109110  1  0
110111  1  0
108111  1  1
110112  1  0
110113  1  0
109114  1  6
114115  1  0
114116  2  0
105117  1  1
117118  1  0
106119  2  0
118120  2  0
118121  1  0
121122  1  0
121123  1  1
122124  2  0
124125  1  0
125126  2  0
126127  1  0
127128  2  0
122128  1  0
126129  1  0
M  END
