 
     RDKit          2D

 49 53  0  0  0  0  0  0  0  0999 V2000
   16.1000  -11.4100    0.0000 C   0  0  0  0  0  0  0  0  0  0  0  0
   16.1000  -12.8100    0.0000 C   0  0  0  0  0  0  0  0  0  0  0  0
   17.3124  -13.5100    0.0000 C   0  0  0  0  0  0  0  0  0  0  0  0
   18.5249  -12.8100    0.0000 C   0  0  0  0  0  0  0  0  0  0  0  0
   18.5249  -11.4100    0.0000 C   0  0  0  0  0  0  0  0  0  0  0  0
   17.3124  -10.7100    0.0000 C   0  0  0  0  0  0  0  0  0  0  0  0
   19.7373  -13.5100    0.0000 S   0  0  0  0  0  0  0  0  0  0  0  0
   20.9497  -12.8100    0.0000 C   0  0  0  0  0  0  0  0  0  0  0  0
   20.9497  -11.4100    0.0000 C   0  0  0  0  0  0  0  0  0  0  0  0
   19.7373  -10.7100    0.0000 N   0  0  0  0  0  0  0  0  0  0  0  0
   22.1622  -13.5100    0.0000 C   0  0  0  0  0  0  0  0  0  0  0  0
   23.3746  -12.8100    0.0000 C   0  0  0  0  0  0  0  0  0  0  0  0
   23.3746  -11.4100    0.0000 C   0  0  0  0  0  0  0  0  0  0  0  0
   22.1622  -10.7100    0.0000 C   0  0  0  0  0  0  0  0  0  0  0  0
   19.7373   -9.3100    0.0000 C   0  0  0  0  0  0  0  0  0  0  0  0
   20.9518   -8.6088    0.0000 C   0  0  0  0  0  0  0  0  0  0  0  0
   22.1483   -9.2998    0.0000 C   0  0  0  0  0  0  0  0  0  0  0  0
   23.3351   -8.6146    0.0000 N   0  0  0  0  0  0  0  0  0  0  0  0
   24.5266   -9.3028    0.0000 C   0  0  0  0  0  0  0  0  0  0  0  0
   25.7391   -8.6029    0.0000 C   0  0  0  0  0  0  0  0  0  0  0  0
   25.7393   -7.2029    0.0000 N   0  0  0  0  0  0  0  0  0  0  0  0
   24.5478   -6.5148    0.0000 C   0  0  0  0  0  0  0  0  0  0  0  0
   23.3353   -7.2146    0.0000 C   0  0  0  0  0  0  0  0  0  0  0  0
   26.9641   -6.4958    0.0000 C   0  0  0  0  0  0  0  0  0  0  0  0
   28.1720   -7.1932    0.0000 C   0  0  0  0  0  0  0  0  0  0  0  0
   29.3532   -6.5113    0.0000 O   0  0  0  0  0  0  0  0  0  0  0  0
   24.5911  -10.7077    0.0000 Cl  0  0  0  0  0  0  0  0  0  0  0  0
   22.3053  -18.3173    0.0000 C   0  0  0  0  0  0  0  0  0  0  0  0
   21.4609  -17.2047    0.0000 C   0  0  0  0  0  0  0  0  0  0  0  0
   21.7970  -15.8442    0.0000 C   0  0  0  0  0  0  0  0  0  0  0  0
   23.0615  -15.2645    0.0000 C   0  0  0  0  0  0  0  0  0  0  0  0
   23.7149  -18.3426    0.0000 C   0  0  0  0  0  0  0  0  0  0  0  0
   24.3184  -15.8885    0.0000 C   0  0  0  0  0  0  0  0  0  0  0  0
   24.6057  -17.2610    0.0000 C   0  0  0  0  0  0  0  0  0  0  0  0
   20.7871  -14.8731    0.0000 C   0  0  0  0  0  0  0  0  0  0  0  0
   19.4414  -15.2623    0.0000 C   0  0  0  0  0  0  0  0  0  0  0  0
   19.1053  -16.6228    0.0000 C   0  0  0  0  0  0  0  0  0  0  0  0
   20.1152  -17.5936    0.0000 C   0  0  0  0  0  0  0  0  0  0  0  0
   25.9405  -17.6993    0.0000 C   0  0  0  0  0  0  0  0  0  0  0  0
   26.9876  -16.7623    0.0000 C   0  0  0  0  0  0  0  0  0  0  0  0
   26.7005  -15.3898    0.0000 C   0  0  0  0  0  0  0  0  0  0  0  0
   25.3654  -14.9515    0.0000 C   0  0  0  0  0  0  0  0  0  0  0  0
   23.0132  -13.8858    0.0000 C   0  0  0  0  0  0  0  0  0  0  0  0
   24.2405  -13.2028    0.0000 C   0  0  0  0  0  0  0  0  0  0  0  0
   25.4121  -13.9042    0.0000 C   0  0  0  0  0  0  0  0  0  0  0  0
   26.6376  -13.2223    0.0000 N   0  0  0  0  0  0  0  0  0  0  0  0
   27.8757  -13.9629    0.0000 C   0  0  0  0  0  0  0  0  0  0  0  0
   26.6597  -11.8503    0.0000 C   0  0  0  0  0  0  0  0  0  0  0  0
   29.9627  -16.4829    0.0000 Cl  0  0  0  0  0  0  0  0  0  0  0  0
  1  2  2  0
  2  3  1  0
  3  4  2  0
  4  5  1  0
  5  6  2  0
  1  6  1  0
  4  7  1  0
  7  8  1  0
  8  9  2  0
  9 10  1  0
  5 10  1  0
  8 11  1  0
 11 12  2  0
 12 13  1  0
 13 14  2  0
  9 14  1  0
 10 15  1  0
 15 16  1  0
 16 17  1  0
 17 18  1  0
 18 19  1  0
 19 20  1  0
 20 21  1  0
 21 22  1  0
 22 23  1  0
 18 23  1  0
 21 24  1  0
 24 25  1  0
 25 26  1  0
 13 27  1  0
 30 31  1  0
 28 32  1  0
 31 33  1  0
 29 30  2  0
 32 34  1  0
 28 29  1  0
 33 34  2  0
 30 35  1  0
 35 36  2  0
 36 37  1  0
 37 38  2  0
 29 38  1  0
 34 39  1  0
 39 40  2  0
 40 41  1  0
 41 42  2  0
 33 42  1  0
 31 43  2  3
 43 44  1  0
 44 45  1  0
 45 46  1  0
 46 47  1  0
 46 48  1  0
M  END
