 
     RDKit          2D

 65 63  0  2  1  0  0  0  0  0999 V2000
   25.1300  -15.7500    0.0000 C   0  0  0  0  0  0  0  0  0  0  0  0
   26.3200  -15.0500    0.0000 C   0  0  0  0  0  0  0  0  0  0  0  0
   23.9400  -15.0500    0.0000 C   0  0  0  0  0  0  0  0  0  0  0  0
   24.6400  -17.1500    0.0000 C   0  0  0  0  0  0  0  0  0  0  0  0
   26.1100  -17.1500    0.0000 N   0  0  0  0  0  0  0  0  0  0  0  0
   27.5100  -15.7500    0.0000 O   0  0  0  0  0  0  0  0  0  0  0  0
   26.3200  -13.7200    0.0000 O   0  0  0  0  0  0  0  0  0  0  0  0
   22.7500  -15.7500    0.0000 C   0  0  0  0  0  0  0  0  0  0  0  0
   21.5600  -15.0500    0.0000 C   0  0  0  0  0  0  0  0  0  0  0  0
   22.7500  -17.1500    0.0000 C   0  0  0  0  0  0  0  0  0  0  0  0
   20.3700  -15.7500    0.0000 C   0  0  0  0  0  0  0  0  0  0  0  0
   21.5600  -17.7800    0.0000 C   0  0  0  0  0  0  0  0  0  0  0  0
   20.3700  -17.1500    0.0000 C   0  0  0  0  0  0  0  0  0  0  0  0
   19.1800  -15.0500    0.0000 O   0  0  0  0  0  0  0  0  0  0  0  0
   19.1800  -17.7800    0.0000 O   0  0  0  0  0  0  0  0  0  0  0  0
   32.5500  -15.9600    0.0000 O   0  0  0  0  0  0  0  0  0  0  0  0
   25.1300  -15.7500    0.0000 C   0  0  0  0  0  0  0  0  0  0  0  0
   26.3200  -15.0500    0.0000 C   0  0  0  0  0  0  0  0  0  0  0  0
   27.5100  -15.7500    0.0000 O   0  0  0  0  0  0  0  0  0  0  0  0
   26.3200  -13.7200    0.0000 O   0  0  0  0  0  0  0  0  0  0  0  0
   23.9400  -15.0500    0.0000 C   0  0  0  0  0  0  0  0  0  0  0  0
   22.7500  -15.7500    0.0000 C   0  0  0  0  0  0  0  0  0  0  0  0
   21.5600  -15.0500    0.0000 C   0  0  0  0  0  0  0  0  0  0  0  0
   20.3700  -15.7500    0.0000 C   0  0  0  0  0  0  0  0  0  0  0  0
   20.3700  -17.1500    0.0000 C   0  0  0  0  0  0  0  0  0  0  0  0
   19.1800  -17.7800    0.0000 O   0  0  0  0  0  0  0  0  0  0  0  0
   21.5600  -17.7800    0.0000 C   0  0  0  0  0  0  0  0  0  0  0  0
   22.7500  -17.1500    0.0000 C   0  0  0  0  0  0  0  0  0  0  0  0
   19.1800  -15.0500    0.0000 O   0  0  0  0  0  0  0  0  0  0  0  0
   24.6400  -17.1500    0.0000 C   0  0  0  0  0  0  0  0  0  0  0  0
   26.1100  -17.1500    0.0000 N   0  0  0  0  0  0  0  0  0  0  0  0
   32.5500  -15.9600    0.0000 O   0  0  0  0  0  0  0  0  0  0  0  0
   32.5500  -15.9600    0.0000 O   0  0  0  0  0  0  0  0  0  0  0  0
   27.4400  -15.8200    0.0000 C   0  0  0  0  0  0  0  0  0  0  0  0
   28.6300  -15.1200    0.0000 C   0  0  0  0  0  0  0  0  0  0  0  0
   26.2500  -15.1200    0.0000 C   0  0  0  0  0  0  0  0  0  0  0  0
   26.9500  -17.2200    0.0000 C   0  0  0  0  0  0  0  0  0  0  0  0
   28.4200  -17.2200    0.0000 N   0  0  0  0  0  0  0  0  0  0  0  0
   29.8200  -15.8200    0.0000 O   0  0  0  0  0  0  0  0  0  0  0  0
   28.6300  -13.7900    0.0000 O   0  0  0  0  0  0  0  0  0  0  0  0
   25.0600  -15.8200    0.0000 C   0  0  0  0  0  0  0  0  0  0  0  0
   23.8700  -15.1200    0.0000 C   0  0  0  0  0  0  0  0  0  0  0  0
   25.0600  -17.2200    0.0000 C   0  0  0  0  0  0  0  0  0  0  0  0
   22.6800  -15.8200    0.0000 C   0  0  0  0  0  0  0  0  0  0  0  0
   23.8700  -17.8500    0.0000 C   0  0  0  0  0  0  0  0  0  0  0  0
   22.6800  -17.2200    0.0000 C   0  0  0  0  0  0  0  0  0  0  0  0
   21.4900  -15.1200    0.0000 O   0  0  0  0  0  0  0  0  0  0  0  0
   21.4900  -17.8500    0.0000 O   0  0  0  0  0  0  0  0  0  0  0  0
   22.4791  -15.9596    0.0000 C   0  0  0  0  0  0  0  0  0  0  0  0
   22.4731  -17.3165    0.0000 C   0  0  0  0  0  0  0  0  0  0  0  0
   23.6605  -15.2870    0.0000 C   0  0  0  0  0  0  0  0  0  0  0  0
   21.3034  -15.2811    0.0000 S   0  0  0  0  0  0  0  0  0  0  0  0
   23.6430  -18.0010    0.0000 C   0  0  0  0  0  0  0  0  0  0  0  0
   21.3034  -17.9950    0.0000 N   0  0  0  0  0  0  0  0  0  0  0  0
   24.8304  -15.9713    0.0000 C   0  0  0  0  0  0  0  0  0  0  0  0
   20.1278  -15.9596    0.0000 N   0  0  0  0  0  0  0  0  0  0  0  0
   19.9933  -14.4564    0.0000 O   0  0  0  0  0  0  0  0  0  0  0  0
   22.5376  -14.4564    0.0000 O   0  0  0  0  0  0  0  0  0  0  0  0
   24.8244  -17.3282    0.0000 C   0  0  0  0  0  0  0  0  0  0  0  0
   20.1278  -17.3165    0.0000 C   0  0  0  0  0  0  0  0  0  0  0  0
   26.0118  -15.2987    0.0000 S   0  0  0  0  0  0  0  0  0  0  0  0
   26.0003  -18.0127    0.0000 Cl  0  0  0  0  0  0  0  0  0  0  0  0
   27.2636  -14.4623    0.0000 N   0  0  0  0  0  0  0  0  0  0  0  0
   27.1349  -16.3164    0.0000 O   0  0  0  0  0  0  0  0  0  0  0  0
   24.9357  -14.2516    0.0000 O   0  0  0  0  0  0  0  0  0  0  0  0
  1  2  1  0
  1  3  1  0
  1  4  1  6
  1  5  1  0
  2  6  1  0
  2  7  2  0
  3  8  1  0
  8  9  2  0
  8 10  1  0
  9 11  1  0
 10 12  2  0
 11 13  2  0
 11 14  1  0
 13 15  1  0
 12 13  1  0
 17 18  1  0
 17 21  1  0
 17 30  1  6
 17 31  1  0
 18 19  1  0
 18 20  2  0
 21 22  1  0
 22 23  2  0
 22 28  1  0
 23 24  1  0
 28 27  2  0
 24 25  2  0
 24 29  1  0
 25 26  1  0
 27 25  1  0
 34 35  1  0
 34 36  1  0
 34 37  1  6
 34 38  1  0
 35 39  1  0
 35 40  2  0
 36 41  1  0
 41 42  2  0
 41 43  1  0
 42 44  1  0
 43 45  2  0
 44 46  2  0
 44 47  1  0
 46 48  1  0
 45 46  1  0
 49 50  1  0
 49 51  2  0
 49 52  1  0
 50 53  2  0
 50 54  1  0
 51 55  1  0
 52 56  1  0
 52 57  2  0
 52 58  2  0
 53 59  1  0
 54 60  1  0
 55 61  1  0
 59 62  1  0
 61 63  1  0
 61 64  2  0
 61 65  2  0
 55 59  2  0
 56 60  1  0
M  STY  2   1 MUL   2 MUL
M  SLB  2   1   1   2   2
M  SCN  2   1 HT    2 HT 
M  SAL   1 15   1   2   3   4   5   6   7   8   9  10  11  12  13  14  15
M  SAL   1 15  17  18  19  20  21  22  23  24  25  26  27  28  29  30  31
M  SPA   1 15   1   2   6   7   3   8   9  11  13  15  12  10  14   4   5
M  SDI   1  4   17.9900  -18.8300   17.9900  -12.8100
M  SDI   1  4   28.7000  -12.8100   28.7000  -18.8300
M  SMT   1 2
M  SAL   2  3  16  32  33
M  SPA   2  1  16
M  SDI   2  4   30.8000  -16.8700   30.8000  -15.0500
M  SDI   2  4   32.9700  -15.0500   32.9700  -16.8700
M  SMT   2 3
M  END
