 
     RDKit          2D

 54 56  0  0  0  0  0  0  0  0999 V2000
   22.4791  -15.9596    0.0000 C   0  0  0  0  0  0  0  0  0  0  0  0
   22.4731  -17.3165    0.0000 C   0  0  0  0  0  0  0  0  0  0  0  0
   23.6605  -15.2870    0.0000 C   0  0  0  0  0  0  0  0  0  0  0  0
   21.3034  -15.2811    0.0000 S   0  0  0  0  0  0  0  0  0  0  0  0
   23.6430  -18.0010    0.0000 C   0  0  0  0  0  0  0  0  0  0  0  0
   21.3034  -17.9950    0.0000 N   0  0  0  0  0  0  0  0  0  0  0  0
   24.8304  -15.9713    0.0000 C   0  0  0  0  0  0  0  0  0  0  0  0
   20.1278  -15.9596    0.0000 N   0  0  0  0  0  0  0  0  0  0  0  0
   19.9933  -14.4564    0.0000 O   0  0  0  0  0  0  0  0  0  0  0  0
   22.5376  -14.4564    0.0000 O   0  0  0  0  0  0  0  0  0  0  0  0
   24.8244  -17.3282    0.0000 C   0  0  0  0  0  0  0  0  0  0  0  0
   20.1278  -17.3165    0.0000 C   0  0  0  0  0  0  0  0  0  0  0  0
   26.0118  -15.2987    0.0000 S   0  0  0  0  0  0  0  0  0  0  0  0
   26.0003  -18.0127    0.0000 Cl  0  0  0  0  0  0  0  0  0  0  0  0
   27.2636  -14.4623    0.0000 N   0  0  0  0  0  0  0  0  0  0  0  0
   27.1349  -16.3164    0.0000 O   0  0  0  0  0  0  0  0  0  0  0  0
   24.9357  -14.2516    0.0000 O   0  0  0  0  0  0  0  0  0  0  0  0
   27.9060  -17.6765    0.0000 C   0  0  0  0  0  0  0  0  0  0  0  0
   27.9060  -16.2768    0.0000 C   0  0  0  0  0  0  0  0  0  0  0  0
   26.7072  -18.3734    0.0000 C   0  0  0  0  0  0  0  0  0  0  0  0
   29.1167  -18.3734    0.0000 C   0  0  0  0  0  0  0  0  0  0  0  0
   26.6953  -15.5799    0.0000 C   0  0  0  0  0  0  0  0  0  0  0  0
   29.1109  -15.5741    0.0000 C   0  0  0  0  0  0  0  0  0  0  0  0
   25.4907  -17.6883    0.0000 N   0  0  0  0  0  0  0  0  0  0  0  0
   30.3274  -17.6705    0.0000 C   0  0  0  0  0  0  0  0  0  0  0  0
   25.4847  -16.2828    0.0000 C   0  0  0  0  0  0  0  0  0  0  0  0
   30.3274  -16.2768    0.0000 C   0  0  0  0  0  0  0  0  0  0  0  0
   24.2800  -18.3852    0.0000 C   0  0  0  0  0  0  0  0  0  0  0  0
   31.5380  -18.3674    0.0000 O   0  0  0  0  0  0  0  0  0  0  0  0
   25.4729  -14.8890    0.0000 C   0  0  0  0  0  0  0  0  0  0  0  0
   31.5321  -15.5741    0.0000 O   0  0  0  0  0  0  0  0  0  0  0  0
   23.0633  -17.6883    0.0000 C   0  0  0  0  0  0  0  0  0  0  0  0
   24.2858  -19.7908    0.0000 O   0  0  0  0  0  0  0  0  0  0  0  0
   32.7487  -17.6705    0.0000 C   0  0  0  0  0  0  0  0  0  0  0  0
   26.6777  -14.1745    0.0000 O   0  0  0  0  0  0  0  0  0  0  0  0
   24.2504  -14.1979    0.0000 O   0  0  0  0  0  0  0  0  0  0  0  0
   32.7487  -16.2709    0.0000 C   0  0  0  0  0  0  0  0  0  0  0  0
   21.8468  -18.3852    0.0000 N   0  0  0  0  0  0  0  0  0  0  0  0
   23.0693  -16.2828    0.0000 C   0  0  0  0  0  0  0  0  0  0  0  0
   20.6420  -17.6942    0.0000 C   0  0  0  0  0  0  0  0  0  0  0  0
   19.4255  -18.3970    0.0000 C   0  0  0  0  0  0  0  0  0  0  0  0
   20.6361  -16.2886    0.0000 C   0  0  0  0  0  0  0  0  0  0  0  0
   18.2088  -17.7120    0.0000 C   0  0  0  0  0  0  0  0  0  0  0  0
   21.8468  -15.5859    0.0000 O   0  0  0  0  0  0  0  0  0  0  0  0
   19.4137  -15.5917    0.0000 O   0  0  0  0  0  0  0  0  0  0  0  0
   16.9981  -18.3970    0.0000 C   0  0  0  0  0  0  0  0  0  0  0  0
   21.8408  -14.1861    0.0000 C   0  0  0  0  0  0  0  0  0  0  0  0
   16.9981  -19.8144    0.0000 C   0  0  0  0  0  0  0  0  0  0  0  0
   15.7934  -17.7120    0.0000 C   0  0  0  0  0  0  0  0  0  0  0  0
   20.6302  -13.4892    0.0000 C   0  0  0  0  0  0  0  0  0  0  0  0
   15.7934  -20.5229    0.0000 C   0  0  0  0  0  0  0  0  0  0  0  0
   14.5710  -18.3970    0.0000 C   0  0  0  0  0  0  0  0  0  0  0  0
   14.5710  -19.8144    0.0000 C   0  0  0  0  0  0  0  0  0  0  0  0
   36.0853  -16.8969    0.0000 Cl  0  0  0  0  0  0  0  0  0  0  0  0
  1  2  1  0
  1  3  2  0
  1  4  1  0
  2  5  2  0
  2  6  1  0
  3  7  1  0
  4  8  1  0
  4  9  2  0
  4 10  2  0
  5 11  1  0
  6 12  1  0
  7 13  1  0
 11 14  1  0
 13 15  1  0
 13 16  2  0
 13 17  2  0
  7 11  2  0
  8 12  1  0
 18 19  2  0
 18 20  1  0
 18 21  1  0
 19 22  1  0
 19 23  1  0
 20 24  1  0
 21 25  2  0
 22 26  1  0
 23 27  2  0
 24 28  1  0
 25 29  1  0
 26 30  1  6
 27 31  1  0
 28 32  1  0
 28 33  2  0
 29 34  1  0
 30 35  1  0
 30 36  2  0
 31 37  1  0
 32 38  1  0
 32 39  1  1
 38 40  1  0
 40 41  1  1
 40 42  1  0
 41 43  1  0
 42 44  1  0
 42 45  2  0
 43 46  1  0
 44 47  1  0
 46 48  2  0
 46 49  1  0
 47 50  1  0
 48 51  1  0
 49 52  2  0
 51 53  2  0
 24 26  1  0
 25 27  1  0
 52 53  1  0
M  END
