 
     RDKit          2D

 36 39  0  0  0  0  0  0  0  0999 V2000
   22.4791  -15.9596    0.0000 C   0  0  0  0  0  0  0  0  0  0  0  0
   22.4731  -17.3165    0.0000 C   0  0  0  0  0  0  0  0  0  0  0  0
   23.6605  -15.2870    0.0000 C   0  0  0  0  0  0  0  0  0  0  0  0
   21.3034  -15.2811    0.0000 S   0  0  0  0  0  0  0  0  0  0  0  0
   23.6430  -18.0010    0.0000 C   0  0  0  0  0  0  0  0  0  0  0  0
   21.3034  -17.9950    0.0000 N   0  0  0  0  0  0  0  0  0  0  0  0
   24.8304  -15.9713    0.0000 C   0  0  0  0  0  0  0  0  0  0  0  0
   20.1278  -15.9596    0.0000 N   0  0  0  0  0  0  0  0  0  0  0  0
   19.9933  -14.4564    0.0000 O   0  0  0  0  0  0  0  0  0  0  0  0
   22.5376  -14.4564    0.0000 O   0  0  0  0  0  0  0  0  0  0  0  0
   24.8244  -17.3282    0.0000 C   0  0  0  0  0  0  0  0  0  0  0  0
   20.1278  -17.3165    0.0000 C   0  0  0  0  0  0  0  0  0  0  0  0
   26.0118  -15.2987    0.0000 S   0  0  0  0  0  0  0  0  0  0  0  0
   26.0003  -18.0127    0.0000 Cl  0  0  0  0  0  0  0  0  0  0  0  0
   27.2636  -14.4623    0.0000 N   0  0  0  0  0  0  0  0  0  0  0  0
   27.1349  -16.3164    0.0000 O   0  0  0  0  0  0  0  0  0  0  0  0
   24.9357  -14.2516    0.0000 O   0  0  0  0  0  0  0  0  0  0  0  0
   23.7354  -19.6412    0.0000 C   0  0  0  0  0  0  0  0  0  0  0  0
   23.7354  -18.2292    0.0000 C   0  0  0  0  0  0  0  0  0  0  0  0
   24.9550  -20.3298    0.0000 N   0  0  0  0  0  0  0  0  0  0  0  0
   22.5099  -20.3357    0.0000 N   0  0  0  0  0  0  0  0  0  0  0  0
   24.9374  -17.5347    0.0000 N   0  0  0  0  0  0  0  0  0  0  0  0
   22.5216  -17.5407    0.0000 C   0  0  0  0  0  0  0  0  0  0  0  0
   26.1512  -19.6412    0.0000 C   0  0  0  0  0  0  0  0  0  0  0  0
   21.2962  -19.6412    0.0000 C   0  0  0  0  0  0  0  0  0  0  0  0
   26.1512  -18.2292    0.0000 C   0  0  0  0  0  0  0  0  0  0  0  0
   21.2962  -18.2409    0.0000 N   0  0  0  0  0  0  0  0  0  0  0  0
   22.5216  -16.1459    0.0000 N   0  0  0  0  0  0  0  0  0  0  0  0
   27.3649  -20.3298    0.0000 N   0  0  0  0  0  0  0  0  0  0  0  0
   20.0826  -20.3531    0.0000 N   0  0  0  0  0  0  0  0  0  0  0  0
   27.3532  -17.5114    0.0000 C   0  0  0  0  0  0  0  0  0  0  0  0
   27.3765  -16.1402    0.0000 C   0  0  0  0  0  0  0  0  0  0  0  0
   28.5961  -18.2116    0.0000 C   0  0  0  0  0  0  0  0  0  0  0  0
   28.5904  -15.4399    0.0000 C   0  0  0  0  0  0  0  0  0  0  0  0
   29.8040  -17.5114    0.0000 C   0  0  0  0  0  0  0  0  0  0  0  0
   29.8274  -16.1226    0.0000 C   0  0  0  0  0  0  0  0  0  0  0  0
  1  2  1  0
  1  3  2  0
  1  4  1  0
  2  5  2  0
  2  6  1  0
  3  7  1  0
  4  8  1  0
  4  9  2  0
  4 10  2  0
  5 11  1  0
  6 12  1  0
  7 13  1  0
 11 14  1  0
 13 15  1  0
 13 16  2  0
 13 17  2  0
  7 11  2  0
  8 12  1  0
 18 19  1  0
 18 20  2  0
 18 21  1  0
 19 22  2  0
 19 23  1  0
 20 24  1  0
 21 25  2  0
 22 26  1  0
 23 27  2  0
 23 28  1  0
 24 29  1  0
 25 30  1  0
 26 31  1  0
 31 32  2  0
 31 33  1  0
 32 34  1  0
 33 35  2  0
 34 36  2  0
 24 26  2  0
 25 27  1  0
 35 36  1  0
M  END
