 
     RDKit          2D

 37 38  0  0  0  0  0  0  0  0999 V2000
    7.6300  -12.9500    0.0000 C   0  0  0  0  0  0  0  0  0  0  0  0
    7.6300  -14.3500    0.0000 C   0  0  0  0  0  0  0  0  0  0  0  0
    8.8424  -15.0500    0.0000 C   0  0  0  0  0  0  0  0  0  0  0  0
   10.0549  -14.3500    0.0000 C   0  0  0  0  0  0  0  0  0  0  0  0
   10.0549  -12.9500    0.0000 C   0  0  0  0  0  0  0  0  0  0  0  0
    8.8424  -12.2500    0.0000 C   0  0  0  0  0  0  0  0  0  0  0  0
   11.2673  -15.0500    0.0000 C   0  0  0  0  0  0  0  0  0  0  0  0
   12.4797  -14.3500    0.0000 C   0  0  0  0  0  0  0  0  0  0  0  0
   12.4797  -12.9500    0.0000 C   0  0  0  0  0  0  0  0  0  0  0  0
   11.2673  -12.2500    0.0000 C   0  0  0  0  0  0  0  0  0  0  0  0
   11.2673  -10.8500    0.0000 O   0  0  0  0  0  0  0  0  0  0  0  0
   12.4818  -10.1488    0.0000 C   0  0  0  0  0  0  0  0  0  0  0  0
   13.6783  -10.8398    0.0000 C   0  0  0  0  0  0  0  0  0  0  0  0
   14.8651  -10.1546    0.0000 C   0  0  0  0  0  0  0  0  0  0  0  0
   13.6784  -12.2497    0.0000 O   0  0  0  0  0  0  0  0  0  0  0  0
   16.0566  -10.8428    0.0000 N   0  0  0  0  0  0  0  0  0  0  0  0
   17.2460  -10.1561    0.0000 C   0  0  0  0  0  0  0  0  0  0  0  0
   18.4362  -10.8435    0.0000 C   0  0  0  0  0  0  0  0  0  0  0  0
   17.2462   -8.7502    0.0000 C   0  0  0  0  0  0  0  0  0  0  0  0
   18.7600  -14.2800    0.0000 Cl  0  0  0  0  0  0  0  0  0  0  0  0
   22.4791  -15.9596    0.0000 C   0  0  0  0  0  0  0  0  0  0  0  0
   22.4731  -17.3165    0.0000 C   0  0  0  0  0  0  0  0  0  0  0  0
   23.6605  -15.2870    0.0000 C   0  0  0  0  0  0  0  0  0  0  0  0
   21.3034  -15.2811    0.0000 S   0  0  0  0  0  0  0  0  0  0  0  0
   23.6430  -18.0010    0.0000 C   0  0  0  0  0  0  0  0  0  0  0  0
   21.3034  -17.9950    0.0000 N   0  0  0  0  0  0  0  0  0  0  0  0
   24.8304  -15.9713    0.0000 C   0  0  0  0  0  0  0  0  0  0  0  0
   20.1278  -15.9596    0.0000 N   0  0  0  0  0  0  0  0  0  0  0  0
   19.9933  -14.4564    0.0000 O   0  0  0  0  0  0  0  0  0  0  0  0
   22.5376  -14.4564    0.0000 O   0  0  0  0  0  0  0  0  0  0  0  0
   24.8244  -17.3282    0.0000 C   0  0  0  0  0  0  0  0  0  0  0  0
   20.1278  -17.3165    0.0000 C   0  0  0  0  0  0  0  0  0  0  0  0
   26.0118  -15.2987    0.0000 S   0  0  0  0  0  0  0  0  0  0  0  0
   26.0003  -18.0127    0.0000 Cl  0  0  0  0  0  0  0  0  0  0  0  0
   27.2636  -14.4623    0.0000 N   0  0  0  0  0  0  0  0  0  0  0  0
   27.1349  -16.3164    0.0000 O   0  0  0  0  0  0  0  0  0  0  0  0
   24.9357  -14.2516    0.0000 O   0  0  0  0  0  0  0  0  0  0  0  0
  1  2  2  0
  2  3  1  0
  3  4  2  0
  4  5  1  0
  5  6  2  0
  1  6  1  0
  4  7  1  0
  7  8  2  0
  8  9  1  0
  9 10  2  0
  5 10  1  0
 10 11  1  0
 11 12  1  0
 12 13  1  0
 13 14  1  0
 13 15  1  0
 14 16  1  0
 16 17  1  0
 17 18  1  0
 17 19  1  0
 21 22  1  0
 21 23  2  0
 21 24  1  0
 22 25  2  0
 22 26  1  0
 23 27  1  0
 24 28  1  0
 24 29  2  0
 24 30  2  0
 25 31  1  0
 26 32  1  0
 27 33  1  0
 31 34  1  0
 33 35  1  0
 33 36  2  0
 33 37  2  0
 27 31  2  0
 28 32  1  0
M  END
