 
     RDKit          2D

 65 64  0  1  0  0  0  0  0  0999 V2000
   21.5532  -15.2544    0.0000 C   0  0  0  0  0  0  0  0  0  0  0  0
   20.2937  -15.9541    0.0000 C   0  0  0  0  0  0  0  0  0  0  0  0
   22.7428  -15.9541    0.0000 C   0  0  0  0  0  0  0  0  0  0  0  0
   21.5532  -13.8549    0.0000 C   0  0  0  0  0  0  0  0  0  0  0  0
   19.1041  -15.2544    0.0000 C   0  0  0  0  0  0  0  0  0  0  0  0
   23.9324  -15.2544    0.0000 C   0  0  0  0  0  0  0  0  0  0  0  0
   22.7428  -17.3536    0.0000 O   0  0  0  0  0  0  0  0  0  0  0  0
   20.2937  -13.1551    0.0000 C   0  0  0  0  0  0  0  0  0  0  0  0
   19.1041  -13.8549    0.0000 C   0  0  0  0  0  0  0  0  0  0  0  0
   17.9145  -15.9541    0.0000 C   0  0  0  0  0  0  0  0  0  0  0  0
   25.1919  -15.9541    0.0000 N   0  0  0  0  0  0  0  0  0  0  0  0
   17.9145  -13.1551    0.0000 O   0  0  0  0  0  0  0  0  0  0  0  0
   16.6550  -15.2544    0.0000 O   0  0  0  0  0  0  0  0  0  0  0  0
   26.3815  -15.2544    0.0000 C   0  0  0  0  0  0  0  0  0  0  0  0
   27.5711  -15.9541    0.0000 C   0  0  0  0  0  0  0  0  0  0  0  0
   26.3815  -13.8549    0.0000 C   0  0  0  0  0  0  0  0  0  0  0  0
   27.5935  -14.5546    0.0000 C   0  0  0  0  0  0  0  0  0  0  0  0
   32.8895  -15.4644    0.0000 S   0  0  0  0  0  0  0  0  0  0  0  0
   31.4899  -15.4644    0.0000 O   0  0  0  0  0  0  0  0  0  0  0  0
   34.2890  -15.4644    0.0000 O   0  0  0  0  0  0  0  0  0  0  0  0
   32.8895  -14.0649    0.0000 O   0  0  0  0  0  0  0  0  0  0  0  0
   32.8895  -16.8639    0.0000 O   0  0  0  0  0  0  0  0  0  0  0  0
   21.5532  -15.2544    0.0000 C   0  0  0  0  0  0  0  0  0  0  0  0
   20.2937  -15.9541    0.0000 C   0  0  0  0  0  0  0  0  0  0  0  0
   19.1041  -15.2544    0.0000 C   0  0  0  0  0  0  0  0  0  0  0  0
   19.1041  -13.8549    0.0000 C   0  0  0  0  0  0  0  0  0  0  0  0
   17.9145  -13.1551    0.0000 O   0  0  0  0  0  0  0  0  0  0  0  0
   20.2937  -13.1551    0.0000 C   0  0  0  0  0  0  0  0  0  0  0  0
   21.5532  -13.8549    0.0000 C   0  0  0  0  0  0  0  0  0  0  0  0
   17.9145  -15.9541    0.0000 C   0  0  0  0  0  0  0  0  0  0  0  0
   16.6550  -15.2544    0.0000 O   0  0  0  0  0  0  0  0  0  0  0  0
   22.7428  -15.9541    0.0000 C   0  0  0  0  0  0  0  0  0  0  0  0
   23.9324  -15.2544    0.0000 C   0  0  0  0  0  0  0  0  0  0  0  0
   25.1919  -15.9541    0.0000 N   0  0  0  0  0  0  0  0  0  0  0  0
   26.3815  -15.2544    0.0000 C   0  0  0  0  0  0  0  0  0  0  0  0
   27.5711  -15.9541    0.0000 C   0  0  0  0  0  0  0  0  0  0  0  0
   26.3815  -13.8549    0.0000 C   0  0  0  0  0  0  0  0  0  0  0  0
   27.5935  -14.5546    0.0000 C   0  0  0  0  0  0  0  0  0  0  0  0
   22.7428  -17.3536    0.0000 O   0  0  0  0  0  0  0  0  0  0  0  0
   36.0414  -15.4183    0.0000 O   0  0  0  0  0  0  0  0  0  0  0  0
   21.9338  -15.2408    0.0000 C   0  0  0  0  0  0  0  0  0  0  0  0
   22.2619  -14.0691    0.0000 C   0  0  0  0  0  0  0  0  0  0  0  0
   23.1055  -14.9596    0.0000 C   0  0  0  0  0  0  0  0  0  0  0  0
   23.4336  -13.7879    0.0000 C   0  0  0  0  0  0  0  0  0  0  0  0
   22.1682  -12.4756    0.0000 N   0  0  0  0  0  0  0  0  0  0  0  0
   24.9802  -14.9596    0.0000 C   0  0  0  0  0  0  0  0  0  0  0  0
   24.6990  -13.7879    0.0000 C   0  0  0  0  0  0  0  0  0  0  0  0
   26.0113  -15.5220    0.0000 C   0  0  0  0  0  0  0  0  0  0  0  0
   27.0893  -16.4125    0.0000 O   0  0  0  0  0  0  0  0  0  0  0  0
   28.3079  -16.4125    0.0000 C   0  0  0  0  0  0  0  0  0  0  0  0
   28.9172  -15.3345    0.0000 C   0  0  0  0  0  0  0  0  0  0  0  0
   28.9172  -17.5373    0.0000 O   0  0  0  0  0  0  0  0  0  0  0  0
   30.1358  -15.3345    0.0000 C   0  0  0  0  0  0  0  0  0  0  0  0
   28.3079  -14.3034    0.0000 C   0  0  0  0  0  0  0  0  0  0  0  0
   28.9172  -13.2255    0.0000 O   0  0  0  0  0  0  0  0  0  0  0  0
   30.8420  -16.5582    0.0000 C   0  0  0  0  0  0  0  0  0  0  0  0
   32.2420  -16.5585    0.0000 C   0  0  0  0  0  0  0  0  0  0  0  0
   32.9422  -15.3462    0.0000 C   0  0  0  0  0  0  0  0  0  0  0  0
   32.2361  -14.1225    0.0000 C   0  0  0  0  0  0  0  0  0  0  0  0
   30.8361  -14.1222    0.0000 C   0  0  0  0  0  0  0  0  0  0  0  0
   21.4191  -11.2914    0.0000 C   0  0  0  0  0  0  0  0  0  0  0  0
   20.9389  -13.0883    0.0000 C   0  0  0  0  0  0  0  0  0  0  0  0
   19.7662  -12.3118    0.0000 C   0  0  0  0  0  0  0  0  0  0  0  0
   20.9231  -14.4879    0.0000 C   0  0  0  0  0  0  0  0  0  0  0  0
   25.9700  -11.4800    0.0000 Br  0  0  0  0  0  0  0  0  0  0  0  0
 18 19  1  0
 18 20  1  0
 18 21  2  0
 18 22  2  0
  1  2  2  0
  1  3  1  0
  1  4  1  0
  2  5  1  0
  3  6  1  0
  3  7  1  0
  4  8  2  0
  5  9  2  0
  5 10  1  0
  6 11  1  0
  9 12  1  0
 10 13  1  0
 11 14  1  0
 14 15  1  0
 14 16  1  0
  8  9  1  0
 14 17  1  0
 23 24  2  0
 23 32  1  0
 23 29  1  0
 24 25  1  0
 32 33  1  0
 32 39  1  0
 29 28  2  0
 25 26  2  0
 25 30  1  0
 33 34  1  0
 26 27  1  0
 30 31  1  0
 34 35  1  0
 35 36  1  0
 35 37  1  0
 28 26  1  0
 35 38  1  0
 41 42  1  0
 43 41  1  6
 44 42  1  1
 43 45  1  0
 43 46  1  0
 44 47  1  0
 46 48  1  0
 48 49  1  6
 49 50  1  0
 50 51  1  0
 50 52  2  0
 51 53  1  0
 51 54  1  0
 54 55  1  0
 44 45  1  0
 47 48  1  0
 53 56  2  0
 56 57  1  0
 57 58  2  0
 58 59  1  0
 59 60  2  0
 53 60  1  0
 45 61  1  0
 45 62  1  0
 62 63  1  0
 62 64  1  0
M  CHG  2  45   1  65  -1
M  STY  1   1 MUL
M  SLB  1   1   1
M  SCN  1   1 HT 
M  SAL   1 15   1   2   3   4   5   6   7   8   9  10  11  12  13  14  15
M  SAL   1 15  16  17  23  24  25  26  27  28  29  30  31  32  33  34  35
M  SAL   1  4  36  37  38  39
M  SPA   1 15   1   2   5   9  12   8   4  10  13   3   6  11  14  15  16
M  SPA   1  2  17   7
M  SDI   1  4   15.1900  -18.4800   15.1900  -11.7600
M  SDI   1  4   29.3300  -11.7600   29.3300  -18.4800
M  SMT   1 2
M  END
