 
     RDKit          2D

 50 52  0  0  1  0  0  0  0  0999 V2000
   28.2490  -19.8211    0.0000 C   0  0  0  0  0  0  0  0  0  0  0  0
   29.4582  -19.1183    0.0000 C   0  0  0  0  0  0  0  0  0  0  0  0
   27.0337  -19.1187    0.0000 N   0  0  0  0  0  0  0  0  0  0  0  0
   29.4645  -17.7270    0.0000 C   0  0  0  0  0  0  0  0  0  0  0  0
   30.6604  -19.8200    0.0000 C   0  0  0  0  0  0  0  0  0  0  0  0
   27.0378  -17.7192    0.0000 C   0  0  0  0  0  0  0  0  0  0  0  0
   28.2493  -17.0245    0.0000 C   0  0  0  0  0  0  0  0  0  0  0  0
   30.6680  -17.0343    0.0000 C   0  0  0  0  0  0  0  0  0  0  0  0
   31.8720  -19.1253    0.0000 C   0  0  0  0  0  0  0  0  0  0  0  0
   31.8732  -17.7311    0.0000 C   0  0  0  0  0  0  0  0  0  0  0  0
   23.4099  -19.8234    0.0000 N   0  0  0  0  0  0  0  0  0  0  0  0
   22.1992  -19.1275    0.0000 C   0  0  0  0  0  0  0  0  0  0  0  0
   22.1933  -17.7238    0.0000 C   0  0  0  0  0  0  0  0  0  0  0  0
   20.9826  -19.8351    0.0000 C   0  0  0  0  0  0  0  0  0  0  0  0
   23.4099  -17.0219    0.0000 O   0  0  0  0  0  0  0  0  0  0  0  0
   20.9709  -17.0277    0.0000 O   0  0  0  0  0  0  0  0  0  0  0  0
   19.7661  -19.1450    0.0000 C   0  0  0  0  0  0  0  0  0  0  0  0
   23.4040  -15.6182    0.0000 C   0  0  0  0  0  0  0  0  0  0  0  0
   18.5554  -19.8351    0.0000 C   0  0  0  0  0  0  0  0  0  0  0  0
   22.1875  -14.9223    0.0000 C   0  0  0  0  0  0  0  0  0  0  0  0
   18.5554  -21.2506    0.0000 C   0  0  0  0  0  0  0  0  0  0  0  0
   17.3506  -19.1450    0.0000 C   0  0  0  0  0  0  0  0  0  0  0  0
   17.3506  -21.9582    0.0000 C   0  0  0  0  0  0  0  0  0  0  0  0
   16.1282  -19.8351    0.0000 C   0  0  0  0  0  0  0  0  0  0  0  0
   16.1282  -21.2506    0.0000 C   0  0  0  0  0  0  0  0  0  0  0  0
   24.6167  -19.1187    0.0000 C   0  0  0  0  0  0  0  0  0  0  0  0
   25.8252  -19.8183    0.0000 C   0  0  0  0  0  0  0  0  0  0  0  0
   25.8252  -21.2177    0.0000 O   0  0  0  0  0  0  0  0  0  0  0  0
   24.6140  -17.7194    0.0000 C   0  0  0  0  0  0  0  0  0  0  0  0
   27.0266  -16.3129    0.0000 C   0  0  0  0  0  0  0  0  0  0  0  0
   28.2329  -15.6036    0.0000 O   0  0  0  0  0  0  0  0  0  0  0  0
   25.8093  -15.6229    0.0000 O   0  0  0  0  0  0  0  0  0  0  0  0
   30.5428  -21.2516    0.0000 Cl  0  0  0  0  0  0  0  0  0  0  0  0
   22.4791  -15.9596    0.0000 C   0  0  0  0  0  0  0  0  0  0  0  0
   22.4731  -17.3165    0.0000 C   0  0  0  0  0  0  0  0  0  0  0  0
   23.6605  -15.2870    0.0000 C   0  0  0  0  0  0  0  0  0  0  0  0
   21.3034  -15.2811    0.0000 S   0  0  0  0  0  0  0  0  0  0  0  0
   23.6430  -18.0010    0.0000 C   0  0  0  0  0  0  0  0  0  0  0  0
   21.3034  -17.9950    0.0000 N   0  0  0  0  0  0  0  0  0  0  0  0
   24.8304  -15.9713    0.0000 C   0  0  0  0  0  0  0  0  0  0  0  0
   20.1278  -15.9596    0.0000 N   0  0  0  0  0  0  0  0  0  0  0  0
   19.9933  -14.4564    0.0000 O   0  0  0  0  0  0  0  0  0  0  0  0
   22.5376  -14.4564    0.0000 O   0  0  0  0  0  0  0  0  0  0  0  0
   24.8244  -17.3282    0.0000 C   0  0  0  0  0  0  0  0  0  0  0  0
   20.1278  -17.3165    0.0000 C   0  0  0  0  0  0  0  0  0  0  0  0
   26.0118  -15.2987    0.0000 S   0  0  0  0  0  0  0  0  0  0  0  0
   26.0003  -18.0127    0.0000 Cl  0  0  0  0  0  0  0  0  0  0  0  0
   27.2636  -14.4623    0.0000 N   0  0  0  0  0  0  0  0  0  0  0  0
   27.1349  -16.3164    0.0000 O   0  0  0  0  0  0  0  0  0  0  0  0
   24.9357  -14.2516    0.0000 O   0  0  0  0  0  0  0  0  0  0  0  0
  8 10  2  0
  6  7  1  0
  9 10  1  0
 11 12  1  0
 12 13  1  0
 12 14  1  1
 13 15  1  0
 13 16  2  0
 14 17  1  0
 15 18  1  0
 17 19  1  0
 18 20  1  0
 19 21  2  0
 19 22  1  0
 21 23  1  0
 22 24  2  0
 23 25  2  0
 24 25  1  0
  1  2  1  0
 11 26  1  0
  1  3  1  0
 26 27  1  0
 27  3  1  0
  2  4  2  0
 27 28  2  0
  2  5  1  0
 26 29  1  1
  3  6  1  0
  6 30  1  6
  4  7  1  0
 30 31  1  0
  4  8  1  0
 30 32  2  0
  5  9  2  0
 34 35  1  0
 34 36  2  0
 34 37  1  0
 35 38  2  0
 35 39  1  0
 36 40  1  0
 37 41  1  0
 37 42  2  0
 37 43  2  0
 38 44  1  0
 39 45  1  0
 40 46  1  0
 44 47  1  0
 46 48  1  0
 46 49  2  0
 46 50  2  0
 40 44  2  0
 41 45  1  0
M  END
