 
     RDKit          2D

 60 65  0  0  1  0  0  0  0  0999 V2000
   13.5100  -21.2800    0.0000 C   0  0  0  0  0  0  0  0  0  0  0  0
   13.5100  -22.6800    0.0000 C   0  0  0  0  0  0  0  0  0  0  0  0
   14.9100  -22.6800    0.0000 N   0  0  0  0  0  0  0  0  0  0  0  0
   14.9100  -21.2800    0.0000 C   0  0  0  0  0  0  0  0  0  0  0  0
   12.3200  -23.3800    0.0000 O   0  0  0  0  0  0  0  0  0  0  0  0
   16.1000  -23.3800    0.0000 C   0  0  0  0  0  0  0  0  0  0  0  0
   16.1000  -24.7800    0.0000 C   0  0  0  0  0  0  0  0  0  0  0  0
   17.3600  -25.4800    0.0000 C   0  0  0  0  0  0  0  0  0  0  0  0
   18.5500  -24.7800    0.0000 C   0  0  0  0  0  0  0  0  0  0  0  0
   18.5500  -23.3800    0.0000 C   0  0  0  0  0  0  0  0  0  0  0  0
   17.3600  -22.6800    0.0000 C   0  0  0  0  0  0  0  0  0  0  0  0
   19.7400  -25.4800    0.0000 F   0  0  0  0  0  0  0  0  0  0  0  0
   16.1000  -20.5800    0.0000 C   0  0  0  0  0  0  0  0  0  0  0  0
   17.2900  -21.2800    0.0000 C   0  0  0  0  0  0  0  0  0  0  0  0
   18.5500  -20.5800    0.0000 C   0  0  0  0  0  0  0  0  0  0  0  0
   18.5500  -19.1800    0.0000 C   0  0  0  0  0  0  0  0  0  0  0  0
   17.3600  -18.4800    0.0000 C   0  0  0  0  0  0  0  0  0  0  0  0
   16.1000  -19.1800    0.0000 C   0  0  0  0  0  0  0  0  0  0  0  0
   19.7400  -18.4800    0.0000 O   0  0  0  0  0  0  0  0  0  0  0  0
   12.3200  -20.5800    0.0000 C   0  0  0  0  0  0  0  0  0  0  0  0
   11.1300  -21.2800    0.0000 C   0  0  0  0  0  0  0  0  0  0  0  0
    9.9400  -20.5800    0.0000 C   0  0  0  0  0  0  0  0  0  0  0  0
    8.7500  -21.2800    0.0000 C   0  0  0  0  0  0  0  0  0  0  0  0
    9.9400  -19.1800    0.0000 O   0  0  0  0  0  0  0  0  0  0  0  0
    7.5600  -20.5800    0.0000 C   0  0  0  0  0  0  0  0  0  0  0  0
    6.3000  -21.2800    0.0000 C   0  0  0  0  0  0  0  0  0  0  0  0
    6.3000  -22.6800    0.0000 C   0  0  0  0  0  0  0  0  0  0  0  0
    7.4900  -23.3800    0.0000 C   0  0  0  0  0  0  0  0  0  0  0  0
    8.7500  -22.6800    0.0000 C   0  0  0  0  0  0  0  0  0  0  0  0
    5.1100  -23.3800    0.0000 F   0  0  0  0  0  0  0  0  0  0  0  0
   19.2474  -18.6526    0.0000 C   0  0  0  0  0  0  0  0  0  0  0  0
   18.0208  -17.9416    0.0000 C   0  0  0  0  0  0  0  0  0  0  0  0
   19.2415  -20.0690    0.0000 C   0  0  0  0  0  0  0  0  0  0  0  0
   20.4741  -17.9476    0.0000 C   0  0  0  0  0  0  0  0  0  0  0  0
   18.0208  -16.5254    0.0000 O   0  0  0  0  0  0  0  0  0  0  0  0
   16.7882  -18.6526    0.0000 C   0  0  0  0  0  0  0  0  0  0  0  0
   20.4622  -20.7862    0.0000 C   0  0  0  0  0  0  0  0  0  0  0  0
   18.0208  -20.7801    0.0000 C   0  0  0  0  0  0  0  0  0  0  0  0
   20.4801  -16.5312    0.0000 C   0  0  0  0  0  0  0  0  0  0  0  0
   21.7008  -18.6646    0.0000 C   0  0  0  0  0  0  0  0  0  0  0  0
   16.7941  -15.8142    0.0000 C   0  0  0  0  0  0  0  0  0  0  0  0
   16.7882  -20.0690    0.0000 C   0  0  0  0  0  0  0  0  0  0  0  0
   21.6950  -20.0809    0.0000 C   0  0  0  0  0  0  0  0  0  0  0  0
   15.5674  -16.5254    0.0000 C   0  0  0  0  0  0  0  0  0  0  0  0
   16.8001  -14.3977    0.0000 O   0  0  0  0  0  0  0  0  0  0  0  0
   15.5615  -20.7801    0.0000 C   0  0  0  0  0  0  0  0  0  0  0  0
   14.3406  -15.8142    0.0000 C   0  0  0  0  0  0  0  0  0  0  0  0
   16.0356  -17.4793    0.0000 C   0  0  0  0  0  0  0  0  0  0  0  0
   14.8248  -17.5491    0.0000 C   0  0  0  0  0  0  0  0  0  0  0  0
   13.1140  -16.5194    0.0000 C   0  0  0  0  0  0  0  0  0  0  0  0
   22.9237  -17.9663    0.0000 C   0  0  0  0  0  0  0  0  0  0  0  0
   21.6950  -15.8392    0.0000 C   0  0  0  0  0  0  0  0  0  0  0  0
   21.7333  -14.4397    0.0000 C   0  0  0  0  0  0  0  0  0  0  0  0
   22.9478  -13.7290    0.0000 O   0  0  0  0  0  0  0  0  0  0  0  0
   22.9396  -12.3297    0.0000 C   0  0  0  0  0  0  0  0  0  0  0  0
   21.7236  -11.6371    0.0000 C   0  0  0  0  0  0  0  0  0  0  0  0
   20.5558  -12.3479    0.0000 C   0  0  0  0  0  0  0  0  0  0  0  0
   20.5639  -13.7472    0.0000 C   0  0  0  0  0  0  0  0  0  0  0  0
   19.3289  -11.6357    0.0000 O   0  0  0  0  0  0  0  0  0  0  0  0
   24.1539  -11.6188    0.0000 O   0  0  0  0  0  0  0  0  0  0  0  0
  1  2  1  0
  2  3  1  0
  3  4  1  0
  1  4  1  0
  5  2  2  0
  3  6  1  0
  6  7  2  0
  7  8  1  0
  8  9  2  0
  9 10  1  0
 10 11  2  0
  6 11  1  0
  9 12  1  0
  4 13  1  1
 13 14  2  0
 14 15  1  0
 15 16  2  0
 16 17  1  0
 17 18  2  0
 13 18  1  0
 16 19  1  0
  1 20  1  6
 20 21  1  0
 21 22  1  0
 22 23  1  0
 22 24  1  1
 23 25  2  0
 25 26  1  0
 26 27  2  0
 27 28  1  0
 28 29  2  0
 23 29  1  0
 27 30  1  0
 31 32  1  0
 31 33  1  6
 31 34  1  0
 32 35  1  6
 32 36  1  0
 33 37  1  0
 33 38  2  0
 34 39  1  1
 34 40  1  0
 35 41  1  0
 36 42  1  0
 37 43  2  0
 41 44  1  0
 41 45  2  0
 42 46  1  6
 44 47  1  0
 44 48  1  0
 44 49  1  0
 47 50  1  0
 38 42  1  0
 40 43  1  0
 40 51  1  1
 39 52  1  0
 53 52  1  6
 53 54  1  0
 54 55  1  0
 55 56  1  0
 56 57  1  0
 57 58  1  0
 53 58  1  0
 57 59  1  1
 55 60  2  0
M  END
