 
     RDKit          2D

 65 67  0  0  1  0  0  0  0  0999 V2000
   28.3850  -18.5792    0.0000 N   0  0  0  0  0  0  0  0  0  0  0  0
   29.6683  -19.1392    0.0000 C   0  0  0  0  0  0  0  0  0  0  0  0
   28.5425  -17.1850    0.0000 C   0  0  0  0  0  0  0  0  0  0  0  0
   27.1775  -19.2850    0.0000 C   0  0  0  0  0  0  0  0  0  0  0  0
   30.6075  -18.1008    0.0000 C   0  0  0  0  0  0  0  0  0  0  0  0
   30.1000  -20.4692    0.0000 C   0  0  0  0  0  0  0  0  0  0  0  0
   29.9134  -16.8933    0.0000 C   0  0  0  0  0  0  0  0  0  0  0  0
   28.5308  -15.7792    0.0000 C   0  0  0  0  0  0  0  0  0  0  0  0
   25.9642  -18.5850    0.0000 C   0  0  0  0  0  0  0  0  0  0  0  0
   27.1834  -20.6850    0.0000 O   0  0  0  0  0  0  0  0  0  0  0  0
   31.9784  -18.3984    0.0000 C   0  0  0  0  0  0  0  0  0  0  0  0
   31.4709  -20.7667    0.0000 C   0  0  0  0  0  0  0  0  0  0  0  0
   29.7326  -15.0675    0.0000 O   0  0  0  0  0  0  0  0  0  0  0  0
   27.3116  -15.0908    0.0000 O   0  0  0  0  0  0  0  0  0  0  0  0
   24.7508  -19.2850    0.0000 N   0  0  0  0  0  0  0  0  0  0  0  0
   25.9699  -17.1850    0.0000 C   0  0  0  0  0  0  0  0  0  0  0  0
   32.4042  -19.7284    0.0000 C   0  0  0  0  0  0  0  0  0  0  0  0
   23.5432  -18.5909    0.0000 C   0  0  0  0  0  0  0  0  0  0  0  0
   22.3300  -19.2967    0.0000 C   0  0  0  0  0  0  0  0  0  0  0  0
   23.5375  -17.1909    0.0000 C   0  0  0  0  0  0  0  0  0  0  0  0
   21.1167  -18.6083    0.0000 C   0  0  0  0  0  0  0  0  0  0  0  0
   24.7508  -16.4909    0.0000 O   0  0  0  0  0  0  0  0  0  0  0  0
   22.3183  -16.4966    0.0000 O   0  0  0  0  0  0  0  0  0  0  0  0
   19.9092  -19.2967    0.0000 C   0  0  0  0  0  0  0  0  0  0  0  0
   24.7450  -15.0908    0.0000 C   0  0  0  0  0  0  0  0  0  0  0  0
   19.9092  -20.7084    0.0000 C   0  0  0  0  0  0  0  0  0  0  0  0
   18.7074  -18.6083    0.0000 C   0  0  0  0  0  0  0  0  0  0  0  0
   23.5317  -14.3966    0.0000 C   0  0  0  0  0  0  0  0  0  0  0  0
   18.7074  -21.4141    0.0000 C   0  0  0  0  0  0  0  0  0  0  0  0
   17.4883  -19.2967    0.0000 C   0  0  0  0  0  0  0  0  0  0  0  0
   17.4883  -20.7084    0.0000 C   0  0  0  0  0  0  0  0  0  0  0  0
   21.2610  -18.3478    0.0000 C   0  0  0  0  0  0  0  0  0  0  0  0
   20.0604  -19.0472    0.0000 C   0  0  0  0  0  0  0  0  0  0  0  0
   22.4731  -19.0413    0.0000 C   0  0  0  0  0  0  0  0  0  0  0  0
   21.3019  -16.9957    0.0000 C   0  0  0  0  0  0  0  0  0  0  0  0
   18.8483  -18.3478    0.0000 C   0  0  0  0  0  0  0  0  0  0  0  0
   20.0604  -20.4457    0.0000 C   0  0  0  0  0  0  0  0  0  0  0  0
   23.6853  -18.3419    0.0000 C   0  0  0  0  0  0  0  0  0  0  0  0
   22.5142  -16.2848    0.0000 C   0  0  0  0  0  0  0  0  0  0  0  0
   20.0955  -16.2964    0.0000 C   0  0  0  0  0  0  0  0  0  0  0  0
   17.6362  -19.0472    0.0000 C   0  0  0  0  0  0  0  0  0  0  0  0
   18.8483  -21.1509    0.0000 C   0  0  0  0  0  0  0  0  0  0  0  0
   24.8917  -19.0296    0.0000 C   0  0  0  0  0  0  0  0  0  0  0  0
   17.6362  -20.4457    0.0000 C   0  0  0  0  0  0  0  0  0  0  0  0
   16.4183  -18.3478    0.0000 O   0  0  0  0  0  0  0  0  0  0  0  0
   26.1038  -18.3361    0.0000 N   0  0  0  0  0  0  0  0  0  0  0  0
   16.4183  -21.1509    0.0000 O   0  0  0  0  0  0  0  0  0  0  0  0
   15.2061  -19.0472    0.0000 C   0  0  0  0  0  0  0  0  0  0  0  0
   27.3159  -19.0239    0.0000 C   0  0  0  0  0  0  0  0  0  0  0  0
   26.1038  -16.8851    0.0000 C   0  0  0  0  0  0  0  0  0  0  0  0
   15.2061  -20.4515    0.0000 C   0  0  0  0  0  0  0  0  0  0  0  0
   28.5280  -18.3302    0.0000 C   0  0  0  0  0  0  0  0  0  0  0  0
   29.7284  -19.0180    0.0000 C   0  0  0  0  0  0  0  0  0  0  0  0
   30.9407  -18.3185    0.0000 C   0  0  0  0  0  0  0  0  0  0  0  0
   29.7345  -20.4107    0.0000 C   0  0  0  0  0  0  0  0  0  0  0  0
   32.1471  -19.0122    0.0000 C   0  0  0  0  0  0  0  0  0  0  0  0
   30.9464  -21.1101    0.0000 C   0  0  0  0  0  0  0  0  0  0  0  0
   32.1529  -20.4049    0.0000 C   0  0  0  0  0  0  0  0  0  0  0  0
   33.3592  -18.3070    0.0000 O   0  0  0  0  0  0  0  0  0  0  0  0
   33.3708  -21.1042    0.0000 O   0  0  0  0  0  0  0  0  0  0  0  0
   34.5772  -19.0005    0.0000 C   0  0  0  0  0  0  0  0  0  0  0  0
   34.5828  -20.3991    0.0000 C   0  0  0  0  0  0  0  0  0  0  0  0
   21.2610  -19.7452    0.0000 C   0  0  0  0  0  0  0  0  0  0  0  0
   21.2610  -21.1427    0.0000 N   0  0  0  0  0  0  0  0  0  0  0  0
   31.2200  -23.3100    0.0000 Cl  0  0  0  0  0  0  0  0  0  0  0  0
  1  2  1  0
  1  3  1  0
  1  4  1  0
  2  5  1  0
  2  6  1  6
  3  7  1  0
  3  8  1  6
  4  9  1  0
  4 10  2  0
  5 11  1  1
  6 12  1  0
  8 13  1  0
  8 14  2  0
  9 15  1  0
  9 16  1  1
 11 17  1  0
 15 18  1  0
 18 19  1  1
 18 20  1  0
 19 21  1  0
 20 22  1  0
 20 23  2  0
 21 24  1  0
 22 25  1  0
 24 26  2  0
 24 27  1  0
 25 28  1  0
 26 29  1  0
 27 30  2  0
 29 31  2  0
  5  7  1  0
 12 17  1  0
 30 31  1  0
 32 33  1  0
 32 34  1  0
 32 35  1  0
 33 36  2  0
 33 37  1  0
 34 38  1  0
 35 39  1  0
 35 40  1  0
 36 41  1  0
 37 42  2  0
 38 43  1  0
 41 44  2  0
 41 45  1  0
 43 46  1  0
 44 47  1  0
 45 48  1  0
 46 49  1  0
 46 50  1  0
 47 51  1  0
 49 52  1  0
 52 53  1  0
 53 54  2  0
 53 55  1  0
 54 56  1  0
 55 57  2  0
 56 58  2  0
 56 59  1  0
 58 60  1  0
 59 61  1  0
 60 62  1  0
 42 44  1  0
 57 58  1  0
 32 63  1  0
 63 64  3  0
M  END
