 
     RDKit          2D

 52 53  0  0  1  0  0  0  0  0999 V2000
   30.6132  -16.0047    0.0000 N   0  0  0  0  0  0  0  0  0  0  0  0
   30.6011  -14.5972    0.0000 C   0  0  0  0  0  0  0  0  0  0  0  0
   29.4025  -16.7276    0.0000 C   0  0  0  0  0  0  0  0  0  0  0  0
   31.9477  -16.4196    0.0000 C   0  0  0  0  0  0  0  0  0  0  0  0
   31.9318  -14.1523    0.0000 C   0  0  0  0  0  0  0  0  0  0  0  0
   28.1801  -16.0341    0.0000 C   0  0  0  0  0  0  0  0  0  0  0  0
   29.4201  -18.1324    0.0000 O   0  0  0  0  0  0  0  0  0  0  0  0
   32.7630  -15.2776    0.0000 C   0  0  0  0  0  0  0  0  0  0  0  0
   26.9870  -16.7571    0.0000 N   0  0  0  0  0  0  0  0  0  0  0  0
   28.1684  -14.6294    0.0000 C   0  0  0  0  0  0  0  0  0  0  0  0
   25.7645  -16.0576    0.0000 C   0  0  0  0  0  0  0  0  0  0  0  0
   24.5538  -16.7806    0.0000 C   0  0  0  0  0  0  0  0  0  0  0  0
   25.7527  -14.6588    0.0000 C   0  0  0  0  0  0  0  0  0  0  0  0
   23.3372  -16.0871    0.0000 C   0  0  0  0  0  0  0  0  0  0  0  0
   24.5303  -13.9770    0.0000 O   0  0  0  0  0  0  0  0  0  0  0  0
   26.9458  -13.9535    0.0000 O   0  0  0  0  0  0  0  0  0  0  0  0
   22.1264  -16.8099    0.0000 C   0  0  0  0  0  0  0  0  0  0  0  0
   20.8948  -16.1226    0.0000 C   0  0  0  0  0  0  0  0  0  0  0  0
   19.6927  -16.8403    0.0000 C   0  0  0  0  0  0  0  0  0  0  0  0
   19.6432  -18.2401    0.0000 C   0  0  0  0  0  0  0  0  0  0  0  0
   20.9448  -18.9274    0.0000 C   0  0  0  0  0  0  0  0  0  0  0  0
   22.1469  -18.2098    0.0000 C   0  0  0  0  0  0  0  0  0  0  0  0
   23.2951  -14.7129    0.0000 C   0  0  0  0  0  0  0  0  0  0  0  0
   22.0792  -14.0328    0.0000 C   0  0  0  0  0  0  0  0  0  0  0  0
   31.9477  -17.8196    0.0000 C   0  0  0  0  0  0  0  0  0  0  0  0
   30.7012  -18.5388    0.0000 O   0  0  0  0  0  0  0  0  0  0  0  0
   33.1518  -18.5153    0.0000 O   0  0  0  0  0  0  0  0  0  0  0  0
   38.6529  -14.8470    0.0000 C   0  0  0  0  0  0  0  0  0  0  0  0
   37.0191  -14.8528    0.0000 C   0  0  0  0  0  0  0  0  0  0  0  0
   39.3289  -16.0166    0.0000 C   0  0  0  0  0  0  0  0  0  0  0  0
   36.3431  -16.0284    0.0000 C   0  0  0  0  0  0  0  0  0  0  0  0
   38.6589  -17.1920    0.0000 O   0  0  0  0  0  0  0  0  0  0  0  0
   40.6924  -16.0049    0.0000 O   0  0  0  0  0  0  0  0  0  0  0  0
   34.9855  -16.0284    0.0000 O   0  0  0  0  0  0  0  0  0  0  0  0
   37.0308  -17.2038    0.0000 O   0  0  0  0  0  0  0  0  0  0  0  0
   22.4791  -15.9596    0.0000 C   0  0  0  0  0  0  0  0  0  0  0  0
   22.4731  -17.3165    0.0000 C   0  0  0  0  0  0  0  0  0  0  0  0
   23.6605  -15.2870    0.0000 C   0  0  0  0  0  0  0  0  0  0  0  0
   21.3034  -15.2811    0.0000 S   0  0  0  0  0  0  0  0  0  0  0  0
   23.6430  -18.0010    0.0000 C   0  0  0  0  0  0  0  0  0  0  0  0
   21.3034  -17.9950    0.0000 N   0  0  0  0  0  0  0  0  0  0  0  0
   24.8304  -15.9713    0.0000 C   0  0  0  0  0  0  0  0  0  0  0  0
   20.1278  -15.9596    0.0000 N   0  0  0  0  0  0  0  0  0  0  0  0
   19.9933  -14.4564    0.0000 O   0  0  0  0  0  0  0  0  0  0  0  0
   22.5376  -14.4564    0.0000 O   0  0  0  0  0  0  0  0  0  0  0  0
   24.8244  -17.3282    0.0000 C   0  0  0  0  0  0  0  0  0  0  0  0
   20.1278  -17.3165    0.0000 C   0  0  0  0  0  0  0  0  0  0  0  0
   26.0118  -15.2987    0.0000 S   0  0  0  0  0  0  0  0  0  0  0  0
   26.0003  -18.0127    0.0000 Cl  0  0  0  0  0  0  0  0  0  0  0  0
   27.2636  -14.4623    0.0000 N   0  0  0  0  0  0  0  0  0  0  0  0
   27.1349  -16.3164    0.0000 O   0  0  0  0  0  0  0  0  0  0  0  0
   24.9357  -14.2516    0.0000 O   0  0  0  0  0  0  0  0  0  0  0  0
  1  2  1  0
  1  3  1  0
  1  4  1  0
  2  5  1  0
  3  6  1  0
  3  7  2  0
  4  8  1  0
  6  9  1  0
  6 10  1  1
  9 11  1  0
 11 12  1  1
 11 13  1  0
 12 14  1  0
 13 15  1  0
 13 16  2  0
 14 17  1  0
  5  8  1  0
 17 18  2  0
 18 19  1  0
 19 20  2  0
 20 21  1  0
 21 22  2  0
 17 22  1  0
 15 23  1  0
 23 24  1  0
  4 25  1  1
 25 26  2  0
 25 27  1  0
 28 29  2  0
 28 30  1  0
 29 31  1  0
 30 32  1  0
 30 33  2  0
 31 34  1  0
 31 35  2  0
 36 37  1  0
 36 38  2  0
 36 39  1  0
 37 40  2  0
 37 41  1  0
 38 42  1  0
 39 43  1  0
 39 44  2  0
 39 45  2  0
 40 46  1  0
 41 47  1  0
 42 48  1  0
 46 49  1  0
 48 50  1  0
 48 51  2  0
 48 52  2  0
 42 46  2  0
 43 47  1  0
M  END
