 
     RDKit          2D

 49 52  0  0  0  0  0  0  0  0999 V2000
   27.1723  -15.8483    0.0000 C   0  0  0  0  0  0  0  0  0  0  0  0
   26.3292  -14.7374    0.0000 C   0  0  0  0  0  0  0  0  0  0  0  0
   26.6648  -13.3790    0.0000 C   0  0  0  0  0  0  0  0  0  0  0  0
   27.9273  -12.8002    0.0000 N   0  0  0  0  0  0  0  0  0  0  0  0
   28.5798  -15.8036    0.0000 N   0  0  0  0  0  0  0  0  0  0  0  0
   29.1824  -13.4232    0.0000 C   0  0  0  0  0  0  0  0  0  0  0  0
   29.4693  -14.7936    0.0000 C   0  0  0  0  0  0  0  0  0  0  0  0
   25.6565  -12.4094    0.0000 C   0  0  0  0  0  0  0  0  0  0  0  0
   24.3129  -12.7980    0.0000 C   0  0  0  0  0  0  0  0  0  0  0  0
   23.9773  -14.1564    0.0000 C   0  0  0  0  0  0  0  0  0  0  0  0
   24.9856  -15.1257    0.0000 C   0  0  0  0  0  0  0  0  0  0  0  0
   31.5608  -12.9254    0.0000 C   0  0  0  0  0  0  0  0  0  0  0  0
   30.2278  -12.4877    0.0000 N   0  0  0  0  0  0  0  0  0  0  0  0
   22.6109  -14.5513    0.0000 Cl  0  0  0  0  0  0  0  0  0  0  0  0
   26.5371  -17.0995    0.0000 C   0  0  0  0  0  0  0  0  0  0  0  0
   25.1338  -17.0995    0.0000 C   0  0  0  0  0  0  0  0  0  0  0  0
   29.1538  -17.1181    0.0000 O   0  0  0  0  0  0  0  0  0  0  0  0
   24.4330  -18.3135    0.0000 C   0  0  0  0  0  0  0  0  0  0  0  0
   25.1338  -19.5273    0.0000 C   0  0  0  0  0  0  0  0  0  0  0  0
   26.5371  -19.5273    0.0000 C   0  0  0  0  0  0  0  0  0  0  0  0
   27.2379  -18.3135    0.0000 C   0  0  0  0  0  0  0  0  0  0  0  0
   31.4300  -19.0400    0.0000 Cl  0  0  0  0  0  0  0  0  0  0  0  0
   29.2971  -15.9198    0.0000 Br  0  0  0  0  0  0  0  0  0  0  0  0
   26.8587  -18.5281    0.0000 C   0  0  0  0  0  0  0  0  0  0  0  0
   28.0885  -19.2306    0.0000 C   0  0  0  0  0  0  0  0  0  0  0  0
   26.8571  -17.1168    0.0000 C   0  0  0  0  0  0  0  0  0  0  0  0
   25.6466  -19.2410    0.0000 C   0  0  0  0  0  0  0  0  0  0  0  0
   29.3085  -18.5199    0.0000 C   0  0  0  0  0  0  0  0  0  0  0  0
   28.0901  -20.6417    0.0000 C   0  0  0  0  0  0  0  0  0  0  0  0
   28.0800  -16.4111    0.0000 C   0  0  0  0  0  0  0  0  0  0  0  0
   25.6302  -16.4192    0.0000 C   0  0  0  0  0  0  0  0  0  0  0  0
   24.4318  -18.5296    0.0000 O   0  0  0  0  0  0  0  0  0  0  0  0
   25.6534  -20.6492    0.0000 O   0  0  0  0  0  0  0  0  0  0  0  0
   30.5304  -19.2202    0.0000 C   0  0  0  0  0  0  0  0  0  0  0  0
   29.3170  -21.3395    0.0000 C   0  0  0  0  0  0  0  0  0  0  0  0
   28.0704  -14.9976    0.0000 C   0  0  0  0  0  0  0  0  0  0  0  0
   25.6286  -15.0079    0.0000 C   0  0  0  0  0  0  0  0  0  0  0  0
   23.2226  -19.2475    0.0000 C   0  0  0  0  0  0  0  0  0  0  0  0
   30.5371  -20.6286    0.0000 C   0  0  0  0  0  0  0  0  0  0  0  0
   26.8486  -14.2972    0.0000 C   0  0  0  0  0  0  0  0  0  0  0  0
   21.9624  -18.5156    0.0000 C   0  0  0  0  0  0  0  0  0  0  0  0
   23.2139  -20.6984    0.0000 C   0  0  0  0  0  0  0  0  0  0  0  0
   20.7012  -19.2368    0.0000 C   0  0  0  0  0  0  0  0  0  0  0  0
   22.3748  -19.8356    0.0000 C   0  0  0  0  0  0  0  0  0  0  0  0
   21.9578  -21.4169    0.0000 N   0  0  0  0  0  0  0  0  0  0  0  0
   20.7025  -20.6819    0.0000 C   0  0  0  0  0  0  0  0  0  0  0  0
   21.5304  -20.0249    0.0000 C   0  0  0  0  0  0  0  0  0  0  0  0
   28.0711  -17.8281    0.0000 O   0  0  0  0  0  0  0  0  0  0  0  0
   21.9578  -22.8169    0.0000 C   0  0  0  0  0  0  0  0  0  0  0  0
  3  4  1  0
  1  5  2  0
  4  6  2  0
  2  3  2  0
  5  7  1  0
  1  2  1  0
  6  7  1  0
  3  8  1  0
  8  9  2  0
  9 10  1  0
 10 11  2  0
  2 11  1  0
 12 13  1  0
  6 13  1  0
 10 14  1  0
  1 15  1  0
 15 16  2  0
  5 17  1  0
 16 18  1  0
 18 19  2  0
 19 20  1  0
 20 21  2  0
 15 21  1  0
 24 25  1  0
 24 26  1  0
 24 27  1  0
 25 28  2  0
 25 29  1  0
 26 30  2  0
 26 31  1  0
 27 32  1  0
 27 33  2  0
 28 34  1  0
 29 35  2  0
 30 36  1  0
 31 37  2  0
 32 38  1  0
 34 39  2  0
 36 40  2  0
 38 41  1  0
 38 42  1  0
 41 43  1  0
 41 44  1  0
 42 45  1  0
 43 46  1  0
 44 47  1  0
 35 39  1  0
 37 40  1  0
 45 46  1  0
 45 47  1  0
 24 48  1  0
 45 49  1  0
M  CHG  4   5   1  17  -1  23  -1  45   1
M  END
