 
     RDKit          2D

 43 43  0  0  0  0  0  0  0  0999 V2000
    7.5600  -22.0500    0.0000 C   0  0  0  0  0  0  0  0  0  0  0  0
    7.5600  -23.4500    0.0000 C   0  0  0  0  0  0  0  0  0  0  0  0
    6.3700  -21.2800    0.0000 C   0  0  0  0  0  0  0  0  0  0  0  0
    8.7500  -21.3500    0.0000 C   0  0  0  0  0  0  0  0  0  0  0  0
    6.3700  -24.0800    0.0000 C   0  0  0  0  0  0  0  0  0  0  0  0
    8.7500  -24.1500    0.0000 O   0  0  0  0  0  0  0  0  0  0  0  0
    5.1100  -21.9800    0.0000 C   0  0  0  0  0  0  0  0  0  0  0  0
    9.9400  -22.0500    0.0000 N   0  0  0  0  0  0  0  0  0  0  0  0
    8.7500  -19.9500    0.0000 O   0  0  0  0  0  0  0  0  0  0  0  0
    5.1100  -23.3800    0.0000 C   0  0  0  0  0  0  0  0  0  0  0  0
    8.7500  -25.4800    0.0000 C   0  0  0  0  0  0  0  0  0  0  0  0
    3.9200  -21.2800    0.0000 Cl  0  0  0  0  0  0  0  0  0  0  0  0
   11.2000  -21.3500    0.0000 C   0  0  0  0  0  0  0  0  0  0  0  0
   12.3900  -22.0500    0.0000 C   0  0  0  0  0  0  0  0  0  0  0  0
   13.5800  -21.3500    0.0000 C   0  0  0  0  0  0  0  0  0  0  0  0
   13.5800  -19.9500    0.0000 C   0  0  0  0  0  0  0  0  0  0  0  0
   14.7700  -22.0500    0.0000 C   0  0  0  0  0  0  0  0  0  0  0  0
   14.7700  -19.2500    0.0000 C   0  0  0  0  0  0  0  0  0  0  0  0
   16.0300  -21.3500    0.0000 C   0  0  0  0  0  0  0  0  0  0  0  0
   16.0300  -19.9500    0.0000 C   0  0  0  0  0  0  0  0  0  0  0  0
   17.2200  -19.2500    0.0000 S   0  0  0  0  0  0  0  0  0  0  0  0
   18.4100  -19.9500    0.0000 N   0  0  0  0  0  0  0  0  0  0  0  0
   19.6000  -19.2500    0.0000 C   0  0  0  0  0  0  0  0  0  0  0  0
   20.8600  -19.9500    0.0000 N   0  0  0  0  0  0  0  0  0  0  0  0
   19.6000  -17.8500    0.0000 O   0  0  0  0  0  0  0  0  0  0  0  0
   22.0500  -19.2500    0.0000 C   0  0  0  0  0  0  0  0  0  0  0  0
   22.0500  -17.8500    0.0000 C   0  0  0  0  0  0  0  0  0  0  0  0
   23.2400  -19.9500    0.0000 C   0  0  0  0  0  0  0  0  0  0  0  0
   23.2400  -17.1500    0.0000 C   0  0  0  0  0  0  0  0  0  0  0  0
   24.4300  -19.2500    0.0000 C   0  0  0  0  0  0  0  0  0  0  0  0
   24.4300  -17.8500    0.0000 C   0  0  0  0  0  0  0  0  0  0  0  0
   17.9200  -18.0376    0.0000 O   0  0  0  0  0  0  0  0  0  0  0  0
   16.5200  -18.0376    0.0000 O   0  0  0  0  0  0  0  0  0  0  0  0
   25.2991  -19.3605    0.0000 C   0  0  0  0  0  0  0  0  0  0  0  0
   24.0935  -18.6673    0.0000 N   0  0  0  0  0  0  0  0  0  0  0  0
   26.5163  -18.6673    0.0000 N   0  0  0  0  0  0  0  0  0  0  0  0
   25.2991  -20.7640    0.0000 N   0  0  0  0  0  0  0  0  0  0  0  0
   22.8764  -19.3605    0.0000 C   0  0  0  0  0  0  0  0  0  0  0  0
   27.7278  -19.3605    0.0000 C   0  0  0  0  0  0  0  0  0  0  0  0
   26.5163  -17.2579    0.0000 C   0  0  0  0  0  0  0  0  0  0  0  0
   21.6649  -18.6673    0.0000 N   0  0  0  0  0  0  0  0  0  0  0  0
   22.8764  -20.7640    0.0000 N   0  0  0  0  0  0  0  0  0  0  0  0
   31.1135  -18.2132    0.0000 Cl  0  0  0  0  0  0  0  0  0  0  0  0
  1  2  2  0
  1  3  1  0
  1  4  1  0
  2  5  1  0
  2  6  1  0
  3  7  2  0
  4  8  1  0
  4  9  2  0
  5 10  2  0
  6 11  1  0
  7 12  1  0
  8 13  1  0
 13 14  1  0
 14 15  1  0
 15 16  2  0
 15 17  1  0
 16 18  1  0
 17 19  2  0
 18 20  2  0
 20 21  1  0
 21 22  1  0
 22 23  1  0
 23 24  1  0
 23 25  2  0
 24 26  1  0
 26 27  1  0
 26 28  1  0
 27 29  1  0
 28 30  1  0
 29 31  1  0
  7 10  1  0
 19 20  1  0
 30 31  1  0
 21 32  2  0
 21 33  2  0
 34 35  1  0
 34 36  1  0
 34 37  2  0
 35 38  1  0
 36 39  1  0
 36 40  1  0
 38 41  1  0
 38 42  2  0
M  END
