 
     RDKit          2D

 45 47  0  0  1  0  0  0  0  0999 V2000
   15.6073  -25.1957    0.0000 C   0  0  0  0  0  0  0  0  0  0  0  0
   15.6073  -26.5954    0.0000 C   0  0  0  0  0  0  0  0  0  0  0  0
   16.7971  -27.2953    0.0000 C   0  0  0  0  0  0  0  0  0  0  0  0
   18.1269  -26.5954    0.0000 C   0  0  0  0  0  0  0  0  0  0  0  0
   18.1269  -25.1957    0.0000 C   0  0  0  0  0  0  0  0  0  0  0  0
   16.7971  -24.4958    0.0000 C   0  0  0  0  0  0  0  0  0  0  0  0
   19.3167  -27.2953    0.0000 C   0  0  0  0  0  0  0  0  0  0  0  0
   20.5065  -26.5954    0.0000 N   0  0  0  0  0  0  0  0  0  0  0  0
   20.5065  -25.1957    0.0000 C   0  0  0  0  0  0  0  0  0  0  0  0
   19.3167  -24.4958    0.0000 N   0  0  0  0  0  0  0  0  0  0  0  0
   19.3167  -28.6950    0.0000 C   0  0  0  0  0  0  0  0  0  0  0  0
   21.6963  -24.4958    0.0000 C   0  0  0  0  0  0  0  0  0  0  0  0
   22.8860  -25.1957    0.0000 N   0  0  0  0  0  0  0  0  0  0  0  0
   22.8860  -26.5954    0.0000 C   0  0  0  0  0  0  0  0  0  0  0  0
   24.1458  -27.2953    0.0000 N   0  0  0  0  0  0  0  0  0  0  0  0
   25.3356  -26.5954    0.0000 C   0  0  0  0  0  0  0  0  0  0  0  0
   25.3356  -25.1957    0.0000 C   0  0  0  0  0  0  0  0  0  0  0  0
   24.1458  -24.4958    0.0000 C   0  0  0  0  0  0  0  0  0  0  0  0
   24.1458  -23.0960    0.0000 O   0  0  0  0  0  0  0  0  0  0  0  0
   21.6963  -27.2953    0.0000 O   0  0  0  0  0  0  0  0  0  0  0  0
   24.1458  -28.6950    0.0000 C   0  0  0  0  0  0  0  0  0  0  0  0
   26.6654  -27.0153    0.0000 N   0  0  0  0  0  0  0  0  0  0  0  0
   27.5053  -25.8955    0.0000 C   0  0  0  0  0  0  0  0  0  0  0  0
   26.6654  -24.7757    0.0000 N   0  0  0  0  0  0  0  0  0  0  0  0
   28.9050  -25.8955    0.0000 N   0  0  0  0  0  0  0  0  0  0  0  0
   29.6049  -27.0853    0.0000 C   0  0  0  0  0  0  0  0  0  0  0  0
   31.0046  -27.0853    0.0000 C   0  0  0  0  0  0  0  0  0  0  0  0
   31.7045  -25.8955    0.0000 C   0  0  0  0  0  0  0  0  0  0  0  0
   31.0046  -24.7057    0.0000 C   0  0  0  0  0  0  0  0  0  0  0  0
   29.6049  -24.7057    0.0000 C   0  0  0  0  0  0  0  0  0  0  0  0
   31.7045  -28.3451    0.0000 N   0  0  0  0  0  0  0  0  0  0  0  0
   27.3653  -23.5859    0.0000 C   0  0  0  0  0  0  0  0  0  0  0  0
   28.7650  -23.5859    0.0000 C   0  0  0  0  0  0  0  0  0  0  0  0
   30.1648  -23.5859    0.0000 C   0  0  0  0  0  0  0  0  0  0  0  0
   31.5646  -23.5859    0.0000 C   0  0  0  0  0  0  0  0  0  0  0  0
   25.2991  -19.3605    0.0000 C   0  0  0  0  0  0  0  0  0  0  0  0
   24.0935  -18.6673    0.0000 N   0  0  0  0  0  0  0  0  0  0  0  0
   26.5163  -18.6673    0.0000 N   0  0  0  0  0  0  0  0  0  0  0  0
   25.2991  -20.7640    0.0000 N   0  0  0  0  0  0  0  0  0  0  0  0
   22.8764  -19.3605    0.0000 C   0  0  0  0  0  0  0  0  0  0  0  0
   27.7278  -19.3605    0.0000 C   0  0  0  0  0  0  0  0  0  0  0  0
   26.5163  -17.2579    0.0000 C   0  0  0  0  0  0  0  0  0  0  0  0
   21.6649  -18.6673    0.0000 N   0  0  0  0  0  0  0  0  0  0  0  0
   22.8764  -20.7640    0.0000 N   0  0  0  0  0  0  0  0  0  0  0  0
   31.1135  -18.2132    0.0000 Cl  0  0  0  0  0  0  0  0  0  0  0  0
  1  2  2  0
  2  3  1  0
  3  4  2  0
  4  5  1  0
  5  6  2  0
  1  6  1  0
  4  7  1  0
  7  8  2  0
  8  9  1  0
  9 10  2  0
  5 10  1  0
  7 11  1  0
  9 12  1  0
 12 13  1  0
 13 14  1  0
 14 15  1  0
 15 16  1  0
 16 17  2  0
 17 18  1  0
 13 18  1  0
 18 19  2  0
 14 20  2  0
 15 21  1  0
 16 22  1  0
 22 23  2  0
 23 24  1  0
 17 24  1  0
 23 25  1  0
 25 26  1  0
 26 27  1  0
 27 28  1  0
 28 29  1  0
 29 30  1  0
 25 30  1  0
 27 31  1  1
 32 33  1  0
 32 24  1  0
 33 34  3  0
 34 35  1  0
 36 37  1  0
 36 38  1  0
 36 39  2  0
 37 40  1  0
 38 41  1  0
 38 42  1  0
 40 43  1  0
 40 44  2  0
M  END
