 
     RDKit          2D

105106  0  0  0  0  0  0  0  0999 V2000
   25.2991  -19.3605    0.0000 C   0  0  0  0  0  0  0  0  0  0  0  0
   24.0935  -18.6673    0.0000 N   0  0  0  0  0  0  0  0  0  0  0  0
   26.5163  -18.6673    0.0000 N   0  0  0  0  0  0  0  0  0  0  0  0
   25.2991  -20.7640    0.0000 N   0  0  0  0  0  0  0  0  0  0  0  0
   22.8764  -19.3605    0.0000 C   0  0  0  0  0  0  0  0  0  0  0  0
   27.7278  -19.3605    0.0000 C   0  0  0  0  0  0  0  0  0  0  0  0
   26.5163  -17.2579    0.0000 C   0  0  0  0  0  0  0  0  0  0  0  0
   21.6649  -18.6673    0.0000 N   0  0  0  0  0  0  0  0  0  0  0  0
   22.8764  -20.7640    0.0000 N   0  0  0  0  0  0  0  0  0  0  0  0
   31.1135  -18.2132    0.0000 Cl  0  0  0  0  0  0  0  0  0  0  0  0
    8.1200  -12.2500    0.0000 C   0  0  0  0  0  0  0  0  0  0  0  0
    8.1200  -13.6500    0.0000 C   0  0  0  0  0  0  0  0  0  0  0  0
    9.3324  -14.3500    0.0000 C   0  0  0  0  0  0  0  0  0  0  0  0
   10.5449  -13.6500    0.0000 C   0  0  0  0  0  0  0  0  0  0  0  0
   10.5449  -12.2500    0.0000 C   0  0  0  0  0  0  0  0  0  0  0  0
    9.3324  -11.5500    0.0000 C   0  0  0  0  0  0  0  0  0  0  0  0
    9.3324  -10.1502    0.0000 F   0  0  0  0  0  0  0  0  0  0  0  0
    9.3324  -15.7498    0.0000 F   0  0  0  0  0  0  0  0  0  0  0  0
    6.9076  -11.5500    0.0000 F   0  0  0  0  0  0  0  0  0  0  0  0
   11.7760  -14.3610    0.0000 C   0  0  0  0  0  0  0  0  0  0  0  0
   12.9812  -13.6653    0.0000 C   0  0  0  0  0  0  0  0  0  0  0  0
   14.1635  -14.3481    0.0000 C   0  0  0  0  0  0  0  0  0  0  0  0
   15.3575  -13.6588    0.0000 C   0  0  0  0  0  0  0  0  0  0  0  0
   16.5454  -14.3448    0.0000 N   0  0  0  0  0  0  0  0  0  0  0  0
   15.3577  -12.2503    0.0000 O   0  0  0  0  0  0  0  0  0  0  0  0
   12.9816  -12.2504    0.0000 N   0  0  0  0  0  0  0  0  0  0  0  0
   16.5454  -15.7498    0.0000 C   0  0  0  0  0  0  0  0  0  0  0  0
   17.7578  -16.4498    0.0000 C   0  0  0  0  0  0  0  0  0  0  0  0
   18.9703  -15.7498    0.0000 N   0  0  0  0  0  0  0  0  0  0  0  0
   18.9703  -14.3448    0.0000 C   0  0  0  0  0  0  0  0  0  0  0  0
   17.7579  -13.6448    0.0000 C   0  0  0  0  0  0  0  0  0  0  0  0
   20.3065  -16.1840    0.0000 C   0  0  0  0  0  0  0  0  0  0  0  0
   21.1324  -15.0474    0.0000 N   0  0  0  0  0  0  0  0  0  0  0  0
   20.3065  -13.9107    0.0000 N   0  0  0  0  0  0  0  0  0  0  0  0
   20.3065  -17.5840    0.0000 C   0  0  0  0  0  0  0  0  0  0  0  0
   20.3065  -18.9840    0.0000 F   0  0  0  0  0  0  0  0  0  0  0  0
   21.6999  -17.5839    0.0000 F   0  0  0  0  0  0  0  0  0  0  0  0
   18.9001  -17.5841    0.0000 F   0  0  0  0  0  0  0  0  0  0  0  0
   24.7529  -13.5722    0.0000 P   0  0  0  0  0  0  0  0  0  0  0  0
   26.0648  -13.5841    0.0000 O   0  0  0  0  0  0  0  0  0  0  0  0
   23.5239  -13.5841    0.0000 O   0  0  0  0  0  0  0  0  0  0  0  0
   24.8120  -15.0030    0.0000 O   0  0  0  0  0  0  0  0  0  0  0  0
   24.7882  -11.9456    0.0000 O   0  0  0  0  0  0  0  0  0  0  0  0
   25.6900  -17.7100    0.0000 O   0  0  0  0  0  0  0  0  0  0  0  0
   17.9900  -15.6100    0.0000 C   0  0  0  0  0  0  0  0  0  0  0  0
   17.9900  -17.0100    0.0000 C   0  0  0  0  0  0  0  0  0  0  0  0
   19.1800  -17.7100    0.0000 C   0  0  0  0  0  0  0  0  0  0  0  0
   20.4400  -17.0100    0.0000 C   0  0  0  0  0  0  0  0  0  0  0  0
   20.4400  -15.6100    0.0000 C   0  0  0  0  0  0  0  0  0  0  0  0
   19.1800  -14.9100    0.0000 C   0  0  0  0  0  0  0  0  0  0  0  0
   19.1800  -13.5100    0.0000 F   0  0  0  0  0  0  0  0  0  0  0  0
   19.1800  -19.1100    0.0000 F   0  0  0  0  0  0  0  0  0  0  0  0
   16.8000  -14.9100    0.0000 F   0  0  0  0  0  0  0  0  0  0  0  0
   21.6300  -17.7100    0.0000 C   0  0  0  0  0  0  0  0  0  0  0  0
   22.8900  -17.0100    0.0000 C   0  0  0  0  0  0  0  0  0  0  0  0
   24.0100  -17.7100    0.0000 C   0  0  0  0  0  0  0  0  0  0  0  0
   25.2000  -17.0100    0.0000 C   0  0  0  0  0  0  0  0  0  0  0  0
   26.3900  -17.7100    0.0000 N   0  0  0  0  0  0  0  0  0  0  0  0
   25.2000  -15.6100    0.0000 O   0  0  0  0  0  0  0  0  0  0  0  0
   22.8900  -15.6100    0.0000 N   0  0  0  0  0  0  0  0  0  0  0  0
   26.3900  -19.1100    0.0000 C   0  0  0  0  0  0  0  0  0  0  0  0
   27.6500  -19.8100    0.0000 C   0  0  0  0  0  0  0  0  0  0  0  0
   28.8400  -19.1100    0.0000 N   0  0  0  0  0  0  0  0  0  0  0  0
   28.8400  -17.7100    0.0000 C   0  0  0  0  0  0  0  0  0  0  0  0
   27.6500  -17.0100    0.0000 C   0  0  0  0  0  0  0  0  0  0  0  0
   30.1700  -19.5300    0.0000 C   0  0  0  0  0  0  0  0  0  0  0  0
   31.0100  -18.4100    0.0000 N   0  0  0  0  0  0  0  0  0  0  0  0
   30.1700  -17.2900    0.0000 N   0  0  0  0  0  0  0  0  0  0  0  0
   30.1700  -20.9300    0.0000 C   0  0  0  0  0  0  0  0  0  0  0  0
   30.1700  -22.3300    0.0000 F   0  0  0  0  0  0  0  0  0  0  0  0
   31.5700  -20.9300    0.0000 F   0  0  0  0  0  0  0  0  0  0  0  0
   28.7700  -20.9300    0.0000 F   0  0  0  0  0  0  0  0  0  0  0  0
   10.2430  -13.8910    0.0000 C   0  0  0  0  0  0  0  0  0  0  0  0
   10.2430  -15.2941    0.0000 C   0  0  0  0  0  0  0  0  0  0  0  0
   11.4357  -15.9957    0.0000 C   0  0  0  0  0  0  0  0  0  0  0  0
   12.6985  -15.2941    0.0000 C   0  0  0  0  0  0  0  0  0  0  0  0
   12.6985  -13.8910    0.0000 C   0  0  0  0  0  0  0  0  0  0  0  0
   11.4357  -13.1894    0.0000 C   0  0  0  0  0  0  0  0  0  0  0  0
   11.4357  -11.7863    0.0000 F   0  0  0  0  0  0  0  0  0  0  0  0
   11.4357  -17.3988    0.0000 F   0  0  0  0  0  0  0  0  0  0  0  0
    9.0503  -13.1894    0.0000 F   0  0  0  0  0  0  0  0  0  0  0  0
   13.8911  -15.9957    0.0000 C   0  0  0  0  0  0  0  0  0  0  0  0
   15.1539  -15.2941    0.0000 C   0  0  0  0  0  0  0  0  0  0  0  0
   16.2765  -15.9957    0.0000 C   0  0  0  0  0  0  0  0  0  0  0  0
   17.4691  -15.2941    0.0000 C   0  0  0  0  0  0  0  0  0  0  0  0
   18.6618  -15.9957    0.0000 N   0  0  0  0  0  0  0  0  0  0  0  0
   17.4691  -13.8910    0.0000 O   0  0  0  0  0  0  0  0  0  0  0  0
   15.1539  -13.8910    0.0000 N   0  0  0  0  0  0  0  0  0  0  0  0
   18.6618  -17.3988    0.0000 C   0  0  0  0  0  0  0  0  0  0  0  0
   19.9246  -18.1004    0.0000 C   0  0  0  0  0  0  0  0  0  0  0  0
   21.1172  -17.3988    0.0000 N   0  0  0  0  0  0  0  0  0  0  0  0
   21.1172  -15.9957    0.0000 C   0  0  0  0  0  0  0  0  0  0  0  0
   19.9246  -15.2941    0.0000 C   0  0  0  0  0  0  0  0  0  0  0  0
   22.4502  -17.8197    0.0000 C   0  0  0  0  0  0  0  0  0  0  0  0
   23.2921  -16.6972    0.0000 N   0  0  0  0  0  0  0  0  0  0  0  0
   22.4502  -15.5747    0.0000 N   0  0  0  0  0  0  0  0  0  0  0  0
   22.4502  -19.2229    0.0000 C   0  0  0  0  0  0  0  0  0  0  0  0
   22.4502  -20.6260    0.0000 F   0  0  0  0  0  0  0  0  0  0  0  0
   23.8533  -19.2229    0.0000 F   0  0  0  0  0  0  0  0  0  0  0  0
   21.0471  -19.2229    0.0000 F   0  0  0  0  0  0  0  0  0  0  0  0
   26.9402  -16.2039    0.0000 P   0  0  0  0  0  0  0  0  0  0  0  0
   28.2030  -16.2039    0.0000 O   0  0  0  0  0  0  0  0  0  0  0  0
   25.6774  -16.2039    0.0000 O   0  0  0  0  0  0  0  0  0  0  0  0
   27.0104  -17.6071    0.0000 O   0  0  0  0  0  0  0  0  0  0  0  0
   26.9402  -14.5904    0.0000 O   0  0  0  0  0  0  0  0  0  0  0  0
  1  2  1  0
  1  3  1  0
  1  4  2  0
  2  5  1  0
  3  6  1  0
  3  7  1  0
  5  8  1  0
  5  9  2  0
 11 12  2  0
 12 13  1  0
 13 14  2  0
 14 15  1  0
 15 16  2  0
 11 16  1  0
 16 17  1  0
 13 18  1  0
 11 19  1  0
 14 20  1  0
 20 21  1  0
 21 22  1  0
 22 23  1  0
 23 24  1  0
 23 25  2  0
 21 26  1  1
 24 27  1  0
 27 28  1  0
 28 29  1  0
 29 30  1  0
 30 31  1  0
 24 31  1  0
 29 32  1  0
 32 33  2  0
 33 34  1  0
 30 34  2  0
 32 35  1  0
 35 36  1  0
 35 37  1  0
 35 38  1  0
 39 40  1  0
 39 41  1  0
 39 42  1  0
 39 43  2  0
 45 46  2  0
 46 47  1  0
 47 48  2  0
 48 49  1  0
 49 50  2  0
 45 50  1  0
 50 51  1  0
 47 52  1  0
 45 53  1  0
 48 54  1  0
 54 55  1  0
 55 56  1  0
 56 57  1  0
 57 58  1  0
 57 59  2  0
 55 60  1  1
 58 61  1  0
 61 62  1  0
 62 63  1  0
 63 64  1  0
 64 65  1  0
 58 65  1  0
 63 66  1  0
 66 67  2  0
 67 68  1  0
 64 68  2  0
 66 69  1  0
 69 70  1  0
 69 71  1  0
 69 72  1  0
 73 74  2  0
 74 75  1  0
 75 76  2  0
 76 77  1  0
 77 78  2  0
 73 78  1  0
 78 79  1  0
 75 80  1  0
 73 81  1  0
 76 82  1  0
 82 83  1  0
 83 84  1  0
 84 85  1  0
 85 86  1  0
 85 87  2  0
 83 88  1  1
 86 89  1  0
 89 90  1  0
 90 91  1  0
 91 92  1  0
 92 93  1  0
 86 93  1  0
 91 94  1  0
 94 95  2  0
 95 96  1  0
 92 96  2  0
 94 97  1  0
 97 98  1  0
 97 99  1  0
 97100  1  0
101102  1  0
101103  1  0
101104  1  0
101105  2  0
M  END
