 
     RDKit          2D

 51 52  0  0  0  0  0  0  0  0999 V2000
    4.7600  -25.5500    0.0000 C   0  0  0  0  0  0  0  0  0  0  0  0
    4.7600  -26.9500    0.0000 C   0  0  0  0  0  0  0  0  0  0  0  0
    5.9724  -27.6500    0.0000 C   0  0  0  0  0  0  0  0  0  0  0  0
    7.1849  -26.9500    0.0000 C   0  0  0  0  0  0  0  0  0  0  0  0
    7.1849  -25.5500    0.0000 C   0  0  0  0  0  0  0  0  0  0  0  0
    5.9724  -24.8500    0.0000 C   0  0  0  0  0  0  0  0  0  0  0  0
    9.6097  -26.9500    0.0000 C   0  0  0  0  0  0  0  0  0  0  0  0
    9.6097  -25.5500    0.0000 C   0  0  0  0  0  0  0  0  0  0  0  0
    8.3973  -24.8500    0.0000 C   0  0  0  0  0  0  0  0  0  0  0  0
   10.8222  -27.6500    0.0000 C   0  0  0  0  0  0  0  0  0  0  0  0
   12.0346  -26.9500    0.0000 C   0  0  0  0  0  0  0  0  0  0  0  0
   12.0346  -25.5500    0.0000 C   0  0  0  0  0  0  0  0  0  0  0  0
   10.8222  -24.8500    0.0000 C   0  0  0  0  0  0  0  0  0  0  0  0
    8.3973  -23.4500    0.0000 C   0  0  0  0  0  0  0  0  0  0  0  0
    9.6118  -22.7488    0.0000 C   0  0  0  0  0  0  0  0  0  0  0  0
    9.6118  -21.3488    0.0000 C   0  0  0  0  0  0  0  0  0  0  0  0
    8.3993  -20.6488    0.0000 N   0  0  0  0  0  0  0  0  0  0  0  0
    7.1849  -21.3500    0.0000 C   0  0  0  0  0  0  0  0  0  0  0  0
    7.1849  -22.7500    0.0000 C   0  0  0  0  0  0  0  0  0  0  0  0
    7.1849  -24.1500    0.0000 O   0  0  0  0  0  0  0  0  0  0  0  0
    8.3993  -19.2500    0.0000 C   0  0  0  0  0  0  0  0  0  0  0  0
    9.6123  -18.5497    0.0000 C   0  0  0  0  0  0  0  0  0  0  0  0
   10.8080  -19.2402    0.0000 C   0  0  0  0  0  0  0  0  0  0  0  0
   11.9952  -18.5549    0.0000 C   0  0  0  0  0  0  0  0  0  0  0  0
   13.1865  -19.2429    0.0000 C   0  0  0  0  0  0  0  0  0  0  0  0
   11.9954  -17.1502    0.0000 O   0  0  0  0  0  0  0  0  0  0  0  0
   13.1865  -20.6497    0.0000 C   0  0  0  0  0  0  0  0  0  0  0  0
   14.3989  -21.3498    0.0000 C   0  0  0  0  0  0  0  0  0  0  0  0
   15.6113  -20.6498    0.0000 C   0  0  0  0  0  0  0  0  0  0  0  0
   15.6114  -19.2430    0.0000 C   0  0  0  0  0  0  0  0  0  0  0  0
   14.3990  -18.5429    0.0000 C   0  0  0  0  0  0  0  0  0  0  0  0
   16.8228  -21.3493    0.0000 C   0  0  0  0  0  0  0  0  0  0  0  0
   18.0178  -20.6593    0.0000 C   0  0  0  0  0  0  0  0  0  0  0  0
   19.2053  -21.3450    0.0000 O   0  0  0  0  0  0  0  0  0  0  0  0
   18.0179  -19.2503    0.0000 O   0  0  0  0  0  0  0  0  0  0  0  0
   15.8329  -22.3393    0.0000 C   0  0  0  0  0  0  0  0  0  0  0  0
   17.8128  -22.3393    0.0000 C   0  0  0  0  0  0  0  0  0  0  0  0
   16.5900  -25.3400    0.0000 Cl  0  0  0  0  0  0  0  0  0  0  0  0
   31.6713  -29.5074    0.0000 Cl  0  0  0  0  0  0  0  0  0  0  0  0
   21.1400  -29.6100    0.0000 C   0  0  0  0  0  0  0  0  0  0  0  0
   21.1400  -31.0100    0.0000 C   0  0  0  0  0  0  0  0  0  0  0  0
   22.3524  -31.7100    0.0000 C   0  0  0  0  0  0  0  0  0  0  0  0
   23.5649  -31.0100    0.0000 C   0  0  0  0  0  0  0  0  0  0  0  0
   23.5649  -29.6100    0.0000 C   0  0  0  0  0  0  0  0  0  0  0  0
   22.3524  -28.9100    0.0000 C   0  0  0  0  0  0  0  0  0  0  0  0
   24.7960  -28.8990    0.0000 C   0  0  0  0  0  0  0  0  0  0  0  0
   26.0012  -29.5947    0.0000 C   0  0  0  0  0  0  0  0  0  0  0  0
   24.7957  -27.5101    0.0000 O   0  0  0  0  0  0  0  0  0  0  0  0
   27.1835  -28.9119    0.0000 N   0  0  0  0  0  0  0  0  0  0  0  0
   26.0016  -31.0096    0.0000 C   0  0  0  0  0  0  0  0  0  0  0  0
   28.3775  -29.6012    0.0000 C   0  0  0  0  0  0  0  0  0  0  0  0
  1  2  2  0
  2  3  1  0
  3  4  2  0
  4  5  1  0
  5  6  2  0
  1  6  1  0
  7  8  2  0
  8  9  1  0
  5  9  1  0
  7 10  1  0
 10 11  2  0
 11 12  1  0
 12 13  2  0
  8 13  1  0
  9 14  1  0
 14 15  1  0
 15 16  1  0
 16 17  1  0
 17 18  1  0
 18 19  1  0
 14 19  1  0
  9 20  1  0
 17 21  1  0
 21 22  1  0
 22 23  1  0
 23 24  1  0
 24 25  1  0
 24 26  1  0
 25 27  2  0
 27 28  1  0
 28 29  2  0
 29 30  1  0
 30 31  2  0
 25 31  1  0
 29 32  1  0
 32 33  1  0
 33 34  1  0
 33 35  2  0
 32 36  1  0
 32 37  1  0
 40 41  2  0
 41 42  1  0
 42 43  2  0
 43 44  1  0
 44 45  2  0
 40 45  1  0
 44 46  1  0
 46 47  1  0
 46 48  1  6
 47 49  1  0
 47 50  1  1
 49 51  1  0
M  END
