 
     RDKit          2D

 54 58  0  0  0  0  0  0  0  0999 V2000
   21.5369  -16.2638    0.0000 C   0  0  0  0  0  0  0  0  0  0  0  0
   22.7985  -16.9648    0.0000 N   0  0  0  0  0  0  0  0  0  0  0  0
   21.5369  -14.8622    0.0000 C   0  0  0  0  0  0  0  0  0  0  0  0
   20.3688  -16.9648    0.0000 C   0  0  0  0  0  0  0  0  0  0  0  0
   22.7984  -18.3665    0.0000 C   0  0  0  0  0  0  0  0  0  0  0  0
   23.9665  -16.2171    0.0000 C   0  0  0  0  0  0  0  0  0  0  0  0
   22.7518  -14.1613    0.0000 C   0  0  0  0  0  0  0  0  0  0  0  0
   20.3221  -14.1613    0.0000 C   0  0  0  0  0  0  0  0  0  0  0  0
   19.1539  -16.2638    0.0000 C   0  0  0  0  0  0  0  0  0  0  0  0
   23.4993  -19.5812    0.0000 C   0  0  0  0  0  0  0  0  0  0  0  0
   22.0975  -19.5812    0.0000 C   0  0  0  0  0  0  0  0  0  0  0  0
   23.9665  -14.8622    0.0000 C   0  0  0  0  0  0  0  0  0  0  0  0
   22.7518  -12.7596    0.0000 O   0  0  0  0  0  0  0  0  0  0  0  0
   19.1539  -14.8622    0.0000 C   0  0  0  0  0  0  0  0  0  0  0  0
   25.1813  -14.1613    0.0000 C   0  0  0  0  0  0  0  0  0  0  0  0
   17.8924  -14.1613    0.0000 F   0  0  0  0  0  0  0  0  0  0  0  0
   26.3962  -14.8622    0.0000 O   0  0  0  0  0  0  0  0  0  0  0  0
   25.1813  -12.7596    0.0000 O   0  0  0  0  0  0  0  0  0  0  0  0
   17.9391  -17.0115    0.0000 N   0  0  0  0  0  0  0  0  0  0  0  0
   16.7243  -16.3106    0.0000 C   0  0  0  0  0  0  0  0  0  0  0  0
   15.5094  -17.0115    0.0000 C   0  0  0  0  0  0  0  0  0  0  0  0
   15.5094  -18.4132    0.0000 N   0  0  0  0  0  0  0  0  0  0  0  0
   16.7243  -19.1140    0.0000 C   0  0  0  0  0  0  0  0  0  0  0  0
   17.9391  -18.3665    0.0000 C   0  0  0  0  0  0  0  0  0  0  0  0
   30.1710  -15.3771    0.0000 Cl  0  0  0  0  0  0  0  0  0  0  0  0
   33.2977  -15.4005    0.0000 O   0  0  0  0  0  0  0  0  0  0  0  0
    6.5292  -16.7310    0.0000 C   0  0  0  0  0  0  0  0  0  0  0  0
    6.5292  -18.0917    0.0000 C   0  0  0  0  0  0  0  0  0  0  0  0
    7.7075  -18.7720    0.0000 C   0  0  0  0  0  0  0  0  0  0  0  0
    8.8859  -18.0917    0.0000 C   0  0  0  0  0  0  0  0  0  0  0  0
    8.8859  -16.7310    0.0000 C   0  0  0  0  0  0  0  0  0  0  0  0
    7.7075  -16.0507    0.0000 C   0  0  0  0  0  0  0  0  0  0  0  0
   10.0643  -18.7720    0.0000 C   0  0  0  0  0  0  0  0  0  0  0  0
   11.2426  -18.0917    0.0000 C   0  0  0  0  0  0  0  0  0  0  0  0
   11.2426  -16.7310    0.0000 C   0  0  0  0  0  0  0  0  0  0  0  0
   10.0643  -16.0507    0.0000 C   0  0  0  0  0  0  0  0  0  0  0  0
   12.4210  -16.0507    0.0000 C   0  0  0  0  0  0  0  0  0  0  0  0
   12.4210  -14.6900    0.0000 C   0  0  0  0  0  0  0  0  0  0  0  0
   11.2426  -14.0097    0.0000 C   0  0  0  0  0  0  0  0  0  0  0  0
   10.0643  -14.6900    0.0000 C   0  0  0  0  0  0  0  0  0  0  0  0
   14.7777  -16.0507    0.0000 C   0  0  0  0  0  0  0  0  0  0  0  0
   14.7777  -14.6900    0.0000 C   0  0  0  0  0  0  0  0  0  0  0  0
   13.5994  -14.0097    0.0000 C   0  0  0  0  0  0  0  0  0  0  0  0
    8.8859  -15.3703    0.0000 C   0  0  0  0  0  0  0  0  0  0  0  0
    8.8879  -14.0109    0.0000 O   0  0  0  0  0  0  0  0  0  0  0  0
   12.4210  -13.3294    0.0000 C   0  0  0  0  0  0  0  0  0  0  0  0
   15.9436  -14.0168    0.0000 C   0  0  0  0  0  0  0  0  0  0  0  0
   13.5994  -12.3089    0.0000 C   0  0  0  0  0  0  0  0  0  0  0  0
   10.0643  -17.4113    0.0000 F   0  0  0  0  0  0  0  0  0  0  0  0
   14.7777  -13.1194    0.0000 O   0  0  0  0  0  0  0  0  0  0  0  0
    5.3509  -18.7720    0.0000 O   0  0  0  0  0  0  0  0  0  0  0  0
   14.7817  -11.6263    0.0000 O   0  0  0  0  0  0  0  0  0  0  0  0
   12.4249  -11.6308    0.0000 C   0  0  0  0  0  0  0  0  0  0  0  0
   11.2650  -12.3007    0.0000 O   0  0  0  0  0  0  0  0  0  0  0  0
  3  7  1  0
  3  8  1  0
  4  9  2  0
  5 10  1  0
  5 11  1  0
  6 12  2  0
  7 13  2  0
  8 14  2  0
 12 15  1  0
 14 16  1  0
 15 17  1  0
 15 18  2  0
  7 12  1  0
  9 14  1  0
 10 11  1  0
  9 19  1  0
  1  2  1  0
  1  3  2  0
  1  4  1  0
 19 20  1  0
 20 21  1  0
 21 22  1  0
 22 23  1  0
 23 24  1  0
 24 19  1  0
  2  5  1  0
  2  6  1  0
 27 28  1  0
 28 29  1  0
 29 30  2  0
 30 31  1  0
 31 32  1  0
 27 32  2  0
 30 33  1  0
 33 34  1  0
 35 34  1  6
 35 36  1  0
 31 36  1  0
 35 37  1  0
 37 38  1  0
 38 39  1  0
 39 40  1  0
 36 40  1  0
 37 41  1  1
 41 42  1  0
 42 43  1  0
 38 43  1  0
 31 44  1  1
 40 45  1  1
 38 46  1  1
 42 47  1  6
 43 48  1  0
 36 49  1  6
 43 50  1  6
 28 51  2  0
 48 52  2  0
 48 53  1  0
 53 54  1  0
M  END
