 
     RDKit          2D

 79 84  0  0  0  0  0  0  0  0999 V2000
   29.5695  -18.6304    0.0000 C   0  0  0  0  0  0  0  0  0  0  0  0
   28.3142  -19.3278    0.0000 C   0  0  0  0  0  0  0  0  0  0  0  0
   30.7550  -19.3278    0.0000 C   0  0  0  0  0  0  0  0  0  0  0  0
   29.5698  -17.2357    0.0000 S   0  0  0  0  0  0  0  0  0  0  0  0
   28.3142  -20.6528    0.0000 C   0  0  0  0  0  0  0  0  0  0  0  0
   30.7550  -20.6528    0.0000 C   0  0  0  0  0  0  0  0  0  0  0  0
   29.5698  -15.8409    0.0000 O   0  0  0  0  0  0  0  0  0  0  0  0
   28.1750  -17.2357    0.0000 O   0  0  0  0  0  0  0  0  0  0  0  0
   30.9645  -17.2357    0.0000 O   0  0  0  0  0  0  0  0  0  0  0  0
   29.5695  -21.3502    0.0000 C   0  0  0  0  0  0  0  0  0  0  0  0
   19.3368  -16.0762    0.0000 C   0  0  0  0  0  0  0  0  0  0  0  0
   20.5198  -15.3803    0.0000 C   0  0  0  0  0  0  0  0  0  0  0  0
   18.1539  -15.3803    0.0000 C   0  0  0  0  0  0  0  0  0  0  0  0
   19.3368  -18.4421    0.0000 C   0  0  0  0  0  0  0  0  0  0  0  0
   20.5198  -13.9886    0.0000 C   0  0  0  0  0  0  0  0  0  0  0  0
   21.7028  -16.0762    0.0000 C   0  0  0  0  0  0  0  0  0  0  0  0
   18.1539  -13.9886    0.0000 C   0  0  0  0  0  0  0  0  0  0  0  0
   16.9709  -16.0066    0.0000 C   0  0  0  0  0  0  0  0  0  0  0  0
   20.5198  -19.1380    0.0000 C   0  0  0  0  0  0  0  0  0  0  0  0
   18.1539  -19.1380    0.0000 C   0  0  0  0  0  0  0  0  0  0  0  0
   19.3368  -13.2927    0.0000 N   0  0  0  0  0  0  0  0  0  0  0  0
   21.7028  -13.2927    0.0000 C   0  0  0  0  0  0  0  0  0  0  0  0
   22.8858  -15.3803    0.0000 O   0  0  0  0  0  0  0  0  0  0  0  0
   21.7028  -17.3983    0.0000 O   0  0  0  0  0  0  0  0  0  0  0  0
   16.9709  -13.2927    0.0000 C   0  0  0  0  0  0  0  0  0  0  0  0
   15.7879  -15.3803    0.0000 O   0  0  0  0  0  0  0  0  0  0  0  0
   16.9709  -17.3983    0.0000 O   0  0  0  0  0  0  0  0  0  0  0  0
   20.5198  -20.4601    0.0000 C   0  0  0  0  0  0  0  0  0  0  0  0
   21.7028  -18.4421    0.0000 Cl  0  0  0  0  0  0  0  0  0  0  0  0
   18.1539  -20.4601    0.0000 C   0  0  0  0  0  0  0  0  0  0  0  0
   22.8858  -13.9886    0.0000 O   0  0  0  0  0  0  0  0  0  0  0  0
   24.0687  -16.0762    0.0000 C   0  0  0  0  0  0  0  0  0  0  0  0
   14.6049  -16.0066    0.0000 C   0  0  0  0  0  0  0  0  0  0  0  0
   19.3368  -21.1560    0.0000 C   0  0  0  0  0  0  0  0  0  0  0  0
   24.0687  -13.2927    0.0000 C   0  0  0  0  0  0  0  0  0  0  0  0
   25.2517  -15.3803    0.0000 C   0  0  0  0  0  0  0  0  0  0  0  0
   25.2517  -13.9886    0.0000 C   0  0  0  0  0  0  0  0  0  0  0  0
   26.4347  -13.2927    0.0000 N   0  0  0  0  0  0  0  0  0  0  0  0
   37.1157  -18.9063    0.0000 C   0  0  0  0  0  0  0  0  0  0  0  0
   36.4167  -20.1172    0.0000 C   0  0  0  0  0  0  0  0  0  0  0  0
   35.0273  -20.1154    0.0000 C   0  0  0  0  0  0  0  0  0  0  0  0
   34.6625  -21.4576    0.0000 O   0  0  0  0  0  0  0  0  0  0  0  0
   35.8267  -22.2192    0.0000 C   0  0  0  0  0  0  0  0  0  0  0  0
   36.9105  -21.3475    0.0000 O   0  0  0  0  0  0  0  0  0  0  0  0
   37.1245  -16.2033    0.0000 C   0  0  0  0  0  0  0  0  0  0  0  0
   36.4254  -14.9925    0.0000 C   0  0  0  0  0  0  0  0  0  0  0  0
   34.3282  -16.2033    0.0000 C   0  0  0  0  0  0  0  0  0  0  0  0
   35.0273  -17.4142    0.0000 O   0  0  0  0  0  0  0  0  0  0  0  0
   35.0273  -14.9925    0.0000 C   0  0  0  0  0  0  0  0  0  0  0  0
   33.3849  -12.9584    0.0000 C   0  0  0  0  0  0  0  0  0  0  0  0
   32.1706  -13.6513    0.0000 C   0  0  0  0  0  0  0  0  0  0  0  0
   34.5923  -13.6636    0.0000 N   0  0  0  0  0  0  0  0  0  0  0  0
   36.8607  -13.6636    0.0000 N   0  0  0  0  0  0  0  0  0  0  0  0
   35.7264  -12.8387    0.0000 C   0  0  0  0  0  0  0  0  0  0  0  0
   30.9657  -12.9436    0.0000 C   0  0  0  0  0  0  0  0  0  0  0  0
   29.7513  -13.6365    0.0000 C   0  0  0  0  0  0  0  0  0  0  0  0
   29.7441  -15.0346    0.0000 C   0  0  0  0  0  0  0  0  0  0  0  0
   30.9515  -15.7398    0.0000 C   0  0  0  0  0  0  0  0  0  0  0  0
   32.1659  -15.0469    0.0000 C   0  0  0  0  0  0  0  0  0  0  0  0
   28.5299  -15.7275    0.0000 C   0  0  0  0  0  0  0  0  0  0  0  0
   27.3266  -15.0171    0.0000 C   0  0  0  0  0  0  0  0  0  0  0  0
   26.1123  -15.7102    0.0000 C   0  0  0  0  0  0  0  0  0  0  0  0
   26.1051  -17.1083    0.0000 C   0  0  0  0  0  0  0  0  0  0  0  0
   27.3125  -17.8134    0.0000 C   0  0  0  0  0  0  0  0  0  0  0  0
   28.5269  -17.1204    0.0000 C   0  0  0  0  0  0  0  0  0  0  0  0
   27.2672  -13.6190    0.0000 C   0  0  0  0  0  0  0  0  0  0  0  0
   28.4069  -12.8028    0.0000 N   0  0  0  0  0  0  0  0  0  0  0  0
   27.9847  -11.4699    0.0000 N   0  0  0  0  0  0  0  0  0  0  0  0
   26.5867  -11.4598    0.0000 N   0  0  0  0  0  0  0  0  0  0  0  0
   26.1447  -12.7860    0.0000 N   0  0  0  0  0  0  0  0  0  0  0  0
   34.3282  -18.6250    0.0000 C   0  0  0  0  0  0  0  0  0  0  0  0
   35.8253  -23.6158    0.0000 O   0  0  0  0  0  0  0  0  0  0  0  0
   32.9301  -16.2033    0.0000 O   0  0  0  0  0  0  0  0  0  0  0  0
   35.7264  -11.4406    0.0000 C   0  0  0  0  0  0  0  0  0  0  0  0
   34.5155  -10.7415    0.0000 C   0  0  0  0  0  0  0  0  0  0  0  0
   33.3046  -11.4406    0.0000 C   0  0  0  0  0  0  0  0  0  0  0  0
   37.8245  -17.4158    0.0000 C   0  0  0  0  0  0  0  0  0  0  0  0
   38.3324  -15.5058    0.0000 C   0  0  0  0  0  0  0  0  0  0  0  0
   35.9087  -16.6254    0.0000 O   0  0  0  0  0  0  0  0  0  0  0  0
  1  2  2  0
  1  3  1  0
  1  4  1  0
  2  5  1  0
  3  6  2  0
  4  7  1  0
  4  8  2  0
  4  9  2  0
  5 10  2  0
  6 10  1  0
 11 12  1  0
 11 13  1  0
 11 14  1  0
 12 15  2  0
 12 16  1  0
 13 17  2  0
 13 18  1  0
 14 19  2  0
 14 20  1  0
 15 21  1  0
 15 22  1  0
 16 23  1  0
 16 24  2  0
 17 25  1  0
 18 26  1  0
 18 27  2  0
 19 28  1  0
 19 29  1  0
 20 30  2  0
 22 31  1  0
 23 32  1  0
 26 33  1  0
 28 34  2  0
 31 35  1  0
 32 36  1  0
 35 37  1  0
 37 38  1  0
 17 21  1  0
 30 34  1  0
 55 56  2  0
 56 57  1  0
 57 58  2  0
 58 59  1  0
 59 51  2  0
 47 49  1  0
 57 60  1  0
 40 41  2  0
 50 51  1  0
 39 40  1  0
 50 52  1  0
 60 61  1  0
 61 62  2  0
 62 63  1  0
 63 64  2  0
 64 65  1  0
 65 60  2  0
 45 46  1  0
 61 66  1  0
 41 42  1  0
 46 53  1  0
 53 54  2  0
 54 52  1  0
 66 67  2  0
 67 68  1  0
 68 69  2  0
 69 70  1  0
 70 66  1  0
 52 49  1  0
 48 71  1  0
 71 41  1  0
 49 46  2  0
 42 43  1  0
 43 72  2  0
 43 44  1  0
 47 73  2  0
 47 48  1  0
 54 74  1  0
 44 40  1  0
 74 75  1  0
 51 55  1  0
 75 76  1  0
 45 77  1  0
 45 78  1  0
 45 79  1  0
M  END
