 
     RDKit          2D

279303  0  0  0  0  0  0  0  0999 V2000
   21.4510  -17.1305    0.0000 C   0  0  0  0  0  0  0  0  0  0  0  0
   22.6556  -17.8179    0.0000 C   0  0  0  0  0  0  0  0  0  0  0  0
   20.2399  -17.8179    0.0000 C   0  0  0  0  0  0  0  0  0  0  0  0
   21.4510  -15.7365    0.0000 S   0  0  0  0  0  0  0  0  0  0  0  0
   23.8602  -17.1305    0.0000 O   0  0  0  0  0  0  0  0  0  0  0  0
   22.6556  -19.2118    0.0000 O   0  0  0  0  0  0  0  0  0  0  0  0
   19.0353  -17.1305    0.0000 C   0  0  0  0  0  0  0  0  0  0  0  0
   20.0444  -15.7239    0.0000 O   0  0  0  0  0  0  0  0  0  0  0  0
   22.9269  -15.7177    0.0000 O   0  0  0  0  0  0  0  0  0  0  0  0
   25.0649  -17.8179    0.0000 C   0  0  0  0  0  0  0  0  0  0  0  0
   17.8306  -17.8179    0.0000 O   0  0  0  0  0  0  0  0  0  0  0  0
   19.0353  -15.7365    0.0000 O   0  0  0  0  0  0  0  0  0  0  0  0
   26.2697  -17.1305    0.0000 C   0  0  0  0  0  0  0  0  0  0  0  0
   16.6258  -17.1305    0.0000 C   0  0  0  0  0  0  0  0  0  0  0  0
   27.4744  -17.8179    0.0000 C   0  0  0  0  0  0  0  0  0  0  0  0
   26.2697  -15.7365    0.0000 C   0  0  0  0  0  0  0  0  0  0  0  0
   15.4212  -17.8179    0.0000 C   0  0  0  0  0  0  0  0  0  0  0  0
   28.6790  -17.1305    0.0000 C   0  0  0  0  0  0  0  0  0  0  0  0
   27.4744  -15.0365    0.0000 C   0  0  0  0  0  0  0  0  0  0  0  0
   14.2165  -17.1305    0.0000 C   0  0  0  0  0  0  0  0  0  0  0  0
   15.4212  -19.2118    0.0000 C   0  0  0  0  0  0  0  0  0  0  0  0
   29.8900  -17.8179    0.0000 C   0  0  0  0  0  0  0  0  0  0  0  0
   13.0119  -17.8179    0.0000 C   0  0  0  0  0  0  0  0  0  0  0  0
   14.2165  -19.9120    0.0000 C   0  0  0  0  0  0  0  0  0  0  0  0
   31.0947  -17.1305    0.0000 C   0  0  0  0  0  0  0  0  0  0  0  0
   11.8009  -17.1305    0.0000 C   0  0  0  0  0  0  0  0  0  0  0  0
   10.5962  -17.8179    0.0000 C   0  0  0  0  0  0  0  0  0  0  0  0
   21.4480  -14.3503    0.0000 O   0  0  0  0  0  0  0  0  0  0  0  0
   21.0700  -12.4600    0.0000 Na  0  0  0  0  0 15  0  0  0  0  0  0
   27.7044  -16.3798    0.0000 C   0  0  0  0  0  0  0  0  0  0  0  0
   27.6938  -19.6569    0.0000 C   0  0  0  0  0  0  0  0  0  0  0  0
   28.8947  -15.6950    0.0000 C   0  0  0  0  0  0  0  0  0  0  0  0
   26.5257  -15.6891    0.0000 C   0  0  0  0  0  0  0  0  0  0  0  0
   28.8842  -20.3419    0.0000 C   0  0  0  0  0  0  0  0  0  0  0  0
   26.5221  -20.3419    0.0000 C   0  0  0  0  0  0  0  0  0  0  0  0
   28.9006  -14.3306    0.0000 C   0  0  0  0  0  0  0  0  0  0  0  0
   30.0665  -16.3857    0.0000 C   0  0  0  0  0  0  0  0  0  0  0  0
   26.5316  -14.3118    0.0000 C   0  0  0  0  0  0  0  0  0  0  0  0
   25.3539  -16.3741    0.0000 C   0  0  0  0  0  0  0  0  0  0  0  0
   28.8783  -21.7133    0.0000 C   0  0  0  0  0  0  0  0  0  0  0  0
   30.0686  -19.6686    0.0000 C   0  0  0  0  0  0  0  0  0  0  0  0
   26.5163  -21.7133    0.0000 C   0  0  0  0  0  0  0  0  0  0  0  0
   25.3377  -19.6569    0.0000 C   0  0  0  0  0  0  0  0  0  0  0  0
   27.7160  -13.6327    0.0000 C   0  0  0  0  0  0  0  0  0  0  0  0
   30.0967  -13.6574    0.0000 C   0  0  0  0  0  0  0  0  0  0  0  0
   31.3209  -15.7066    0.0000 C   0  0  0  0  0  0  0  0  0  0  0  0
   25.3539  -13.6327    0.0000 C   0  0  0  0  0  0  0  0  0  0  0  0
   24.1693  -15.6891    0.0000 C   0  0  0  0  0  0  0  0  0  0  0  0
   27.6938  -22.3983    0.0000 C   0  0  0  0  0  0  0  0  0  0  0  0
   30.0443  -22.4042    0.0000 C   0  0  0  0  0  0  0  0  0  0  0  0
   31.2532  -20.3666    0.0000 C   0  0  0  0  0  0  0  0  0  0  0  0
   25.3260  -22.3795    0.0000 C   0  0  0  0  0  0  0  0  0  0  0  0
   24.1473  -20.3362    0.0000 C   0  0  0  0  0  0  0  0  0  0  0  0
   27.7219  -12.2685    0.0000 O   0  0  0  0  0  0  0  0  0  0  0  0
   31.2625  -14.3481    0.0000 C   0  0  0  0  0  0  0  0  0  0  0  0
   30.1026  -12.2859    0.0000 O   0  0  0  0  0  0  0  0  0  0  0  0
   32.4225  -16.4045    0.0000 C   0  0  0  0  0  0  0  0  0  0  0  0
   25.3539  -12.2685    0.0000 O   0  0  0  0  0  0  0  0  0  0  0  0
   24.1693  -14.3118    0.0000 C   0  0  0  0  0  0  0  0  0  0  0  0
   27.6879  -23.7626    0.0000 O   0  0  0  0  0  0  0  0  0  0  0  0
   31.2405  -21.7309    0.0000 C   0  0  0  0  0  0  0  0  0  0  0  0
   30.0384  -23.7685    0.0000 O   0  0  0  0  0  0  0  0  0  0  0  0
   32.4250  -19.6816    0.0000 C   0  0  0  0  0  0  0  0  0  0  0  0
   25.3260  -23.7568    0.0000 O   0  0  0  0  0  0  0  0  0  0  0  0
   24.1414  -21.7005    0.0000 C   0  0  0  0  0  0  0  0  0  0  0  0
   33.6071  -15.7066    0.0000 O   0  0  0  0  0  0  0  0  0  0  0  0
   32.4225  -17.5586    0.0000 O   0  0  0  0  0  0  0  0  0  0  0  0
   24.1693  -11.5777    0.0000 C   0  0  0  0  0  0  0  0  0  0  0  0
   33.6096  -20.3550    0.0000 O   0  0  0  0  0  0  0  0  0  0  0  0
   32.4250  -18.5143    0.0000 O   0  0  0  0  0  0  0  0  0  0  0  0
   24.1297  -24.4302    0.0000 C   0  0  0  0  0  0  0  0  0  0  0  0
   24.1636  -10.2063    0.0000 O   0  0  0  0  0  0  0  0  0  0  0  0
   22.9790  -12.2625    0.0000 C   0  0  0  0  0  0  0  0  0  0  0  0
   22.9394  -23.7452    0.0000 O   0  0  0  0  0  0  0  0  0  0  0  0
   24.1297  -25.7944    0.0000 C   0  0  0  0  0  0  0  0  0  0  0  0
   22.9673   -9.5479    0.0000 C   0  0  0  0  0  0  0  0  0  0  0  0
   21.7886  -11.5894    0.0000 C   0  0  0  0  0  0  0  0  0  0  0  0
   22.9849  -13.6327    0.0000 O   0  0  0  0  0  0  0  0  0  0  0  0
   21.7490  -24.4302    0.0000 C   0  0  0  0  0  0  0  0  0  0  0  0
   22.9453  -26.4794    0.0000 C   0  0  0  0  0  0  0  0  0  0  0  0
   25.3201  -26.4794    0.0000 O   0  0  0  0  0  0  0  0  0  0  0  0
   21.7829  -10.2249    0.0000 C   0  0  0  0  0  0  0  0  0  0  0  0
   22.9616   -8.1726    0.0000 C   0  0  0  0  0  0  0  0  0  0  0  0
   20.6170  -12.2742    0.0000 O   0  0  0  0  0  0  0  0  0  0  0  0
   21.7550  -25.8002    0.0000 C   0  0  0  0  0  0  0  0  0  0  0  0
   20.5775  -23.7509    0.0000 C   0  0  0  0  0  0  0  0  0  0  0  0
   22.9453  -27.8563    0.0000 O   0  0  0  0  0  0  0  0  0  0  0  0
   20.5983   -9.5502    0.0000 O   0  0  0  0  0  0  0  0  0  0  0  0
   21.7712   -7.4856    0.0000 O   0  0  0  0  0  0  0  0  0  0  0  0
   20.5775  -26.4794    0.0000 O   0  0  0  0  0  0  0  0  0  0  0  0
   19.3978  -24.4286    0.0000 O   0  0  0  0  0  0  0  0  0  0  0  0
   19.8386  -14.8614    0.0000 C   0  0  0  0  0  0  0  0  0  0  0  0
   19.8386  -18.1561    0.0000 C   0  0  0  0  0  0  0  0  0  0  0  0
   21.0303  -14.1604    0.0000 C   0  0  0  0  0  0  0  0  0  0  0  0
   18.6468  -14.1604    0.0000 C   0  0  0  0  0  0  0  0  0  0  0  0
   21.0303  -18.8571    0.0000 C   0  0  0  0  0  0  0  0  0  0  0  0
   18.6468  -18.8571    0.0000 C   0  0  0  0  0  0  0  0  0  0  0  0
   21.0303  -12.7584    0.0000 C   0  0  0  0  0  0  0  0  0  0  0  0
   22.2220  -14.8614    0.0000 C   0  0  0  0  0  0  0  0  0  0  0  0
   18.6468  -12.7584    0.0000 C   0  0  0  0  0  0  0  0  0  0  0  0
   17.4551  -14.8614    0.0000 C   0  0  0  0  0  0  0  0  0  0  0  0
   21.0303  -20.2592    0.0000 C   0  0  0  0  0  0  0  0  0  0  0  0
   22.2220  -18.1561    0.0000 C   0  0  0  0  0  0  0  0  0  0  0  0
   18.6468  -20.2592    0.0000 C   0  0  0  0  0  0  0  0  0  0  0  0
   17.4551  -18.1561    0.0000 C   0  0  0  0  0  0  0  0  0  0  0  0
   19.8386  -12.0574    0.0000 C   0  0  0  0  0  0  0  0  0  0  0  0
   22.2921  -12.1275    0.0000 C   0  0  0  0  0  0  0  0  0  0  0  0
   23.4138  -14.1604    0.0000 C   0  0  0  0  0  0  0  0  0  0  0  0
   17.4551  -12.0574    0.0000 C   0  0  0  0  0  0  0  0  0  0  0  0
   16.2634  -14.1604    0.0000 C   0  0  0  0  0  0  0  0  0  0  0  0
   19.8386  -20.9602    0.0000 C   0  0  0  0  0  0  0  0  0  0  0  0
   22.2220  -20.9602    0.0000 C   0  0  0  0  0  0  0  0  0  0  0  0
   23.4137  -18.8571    0.0000 C   0  0  0  0  0  0  0  0  0  0  0  0
   17.4551  -20.8901    0.0000 C   0  0  0  0  0  0  0  0  0  0  0  0
   16.2634  -18.8571    0.0000 C   0  0  0  0  0  0  0  0  0  0  0  0
   19.8386  -10.7255    0.0000 O   0  0  0  0  0  0  0  0  0  0  0  0
   23.4137  -12.8285    0.0000 C   0  0  0  0  0  0  0  0  0  0  0  0
   22.2921  -10.7255    0.0000 O   0  0  0  0  0  0  0  0  0  0  0  0
   24.6054  -14.8614    0.0000 C   0  0  0  0  0  0  0  0  0  0  0  0
   17.4551  -10.7255    0.0000 O   0  0  0  0  0  0  0  0  0  0  0  0
   16.2634  -12.7584    0.0000 C   0  0  0  0  0  0  0  0  0  0  0  0
   19.8386  -22.2921    0.0000 O   0  0  0  0  0  0  0  0  0  0  0  0
   23.4137  -20.2592    0.0000 C   0  0  0  0  0  0  0  0  0  0  0  0
   22.2220  -22.2921    0.0000 O   0  0  0  0  0  0  0  0  0  0  0  0
   24.6054  -18.2262    0.0000 C   0  0  0  0  0  0  0  0  0  0  0  0
   17.4551  -22.2921    0.0000 O   0  0  0  0  0  0  0  0  0  0  0  0
   16.2634  -20.2592    0.0000 C   0  0  0  0  0  0  0  0  0  0  0  0
   25.7971  -14.1604    0.0000 O   0  0  0  0  0  0  0  0  0  0  0  0
   24.6054  -16.0531    0.0000 O   0  0  0  0  0  0  0  0  0  0  0  0
   16.2634  -10.0245    0.0000 C   0  0  0  0  0  0  0  0  0  0  0  0
   25.7971  -18.8571    0.0000 O   0  0  0  0  0  0  0  0  0  0  0  0
   24.6054  -17.0345    0.0000 O   0  0  0  0  0  0  0  0  0  0  0  0
   16.2634  -22.9931    0.0000 C   0  0  0  0  0  0  0  0  0  0  0  0
   16.2634   -8.6225    0.0000 O   0  0  0  0  0  0  0  0  0  0  0  0
   15.0717  -10.7255    0.0000 C   0  0  0  0  0  0  0  0  0  0  0  0
   15.0016  -22.2921    0.0000 O   0  0  0  0  0  0  0  0  0  0  0  0
   16.2634  -24.3951    0.0000 C   0  0  0  0  0  0  0  0  0  0  0  0
   15.0717   -7.9916    0.0000 C   0  0  0  0  0  0  0  0  0  0  0  0
   13.8800  -10.0245    0.0000 C   0  0  0  0  0  0  0  0  0  0  0  0
   15.0717  -12.0574    0.0000 O   0  0  0  0  0  0  0  0  0  0  0  0
   13.8099  -22.9931    0.0000 C   0  0  0  0  0  0  0  0  0  0  0  0
   15.0717  -25.0260    0.0000 C   0  0  0  0  0  0  0  0  0  0  0  0
   17.4551  -25.0260    0.0000 O   0  0  0  0  0  0  0  0  0  0  0  0
   13.8800   -8.6225    0.0000 C   0  0  0  0  0  0  0  0  0  0  0  0
   15.0717   -6.5896    0.0000 C   0  0  0  0  0  0  0  0  0  0  0  0
   12.6883  -10.7255    0.0000 O   0  0  0  0  0  0  0  0  0  0  0  0
   13.8099  -24.3951    0.0000 C   0  0  0  0  0  0  0  0  0  0  0  0
   12.6182  -22.2921    0.0000 C   0  0  0  0  0  0  0  0  0  0  0  0
   15.0717  -26.4280    0.0000 O   0  0  0  0  0  0  0  0  0  0  0  0
   12.6883   -7.9916    0.0000 O   0  0  0  0  0  0  0  0  0  0  0  0
   13.8800   -5.8885    0.0000 O   0  0  0  0  0  0  0  0  0  0  0  0
   12.6182  -25.0260    0.0000 O   0  0  0  0  0  0  0  0  0  0  0  0
   11.4265  -22.9931    0.0000 O   0  0  0  0  0  0  0  0  0  0  0  0
   24.9200  -25.5500    0.0000 Ca  0  0  0  0  0  2  0  0  0  0  0  0
   25.3729  -16.4205    0.0000 C   0  0  0  0  0  0  0  0  0  0  0  0
   25.3728  -20.1475    0.0000 C   0  0  0  0  0  0  0  0  0  0  0  0
   26.5377  -15.7683    0.0000 C   0  0  0  0  0  0  0  0  0  0  0  0
   24.1616  -15.7683    0.0000 C   0  0  0  0  0  0  0  0  0  0  0  0
   26.5376  -20.7998    0.0000 C   0  0  0  0  0  0  0  0  0  0  0  0
   24.2081  -20.7998    0.0000 C   0  0  0  0  0  0  0  0  0  0  0  0
   26.5377  -14.4172    0.0000 C   0  0  0  0  0  0  0  0  0  0  0  0
   27.7024  -16.4671    0.0000 C   0  0  0  0  0  0  0  0  0  0  0  0
   24.1615  -14.3705    0.0000 C   0  0  0  0  0  0  0  0  0  0  0  0
   22.9969  -16.4205    0.0000 C   0  0  0  0  0  0  0  0  0  0  0  0
   26.5376  -22.1974    0.0000 C   0  0  0  0  0  0  0  0  0  0  0  0
   27.7490  -20.1475    0.0000 C   0  0  0  0  0  0  0  0  0  0  0  0
   24.2081  -22.1974    0.0000 C   0  0  0  0  0  0  0  0  0  0  0  0
   22.9969  -20.1475    0.0000 C   0  0  0  0  0  0  0  0  0  0  0  0
   25.3729  -13.7183    0.0000 C   0  0  0  0  0  0  0  0  0  0  0  0
   27.7491  -13.7183    0.0000 C   0  0  0  0  0  0  0  0  0  0  0  0
   28.9137  -15.7683    0.0000 C   0  0  0  0  0  0  0  0  0  0  0  0
   22.9969  -13.7183    0.0000 C   0  0  0  0  0  0  0  0  0  0  0  0
   21.8322  -15.7683    0.0000 C   0  0  0  0  0  0  0  0  0  0  0  0
   25.3728  -22.8497    0.0000 C   0  0  0  0  0  0  0  0  0  0  0  0
   27.7024  -22.8963    0.0000 C   0  0  0  0  0  0  0  0  0  0  0  0
   28.9137  -20.8464    0.0000 C   0  0  0  0  0  0  0  0  0  0  0  0
   22.9969  -22.8497    0.0000 C   0  0  0  0  0  0  0  0  0  0  0  0
   21.8322  -20.7998    0.0000 C   0  0  0  0  0  0  0  0  0  0  0  0
   25.3729  -12.3207    0.0000 O   0  0  0  0  0  0  0  0  0  0  0  0
   28.9137  -14.4172    0.0000 C   0  0  0  0  0  0  0  0  0  0  0  0
   27.7491  -12.3673    0.0000 O   0  0  0  0  0  0  0  0  0  0  0  0
   30.0784  -16.4671    0.0000 C   0  0  0  0  0  0  0  0  0  0  0  0
   22.9969  -12.3207    0.0000 O   0  0  0  0  0  0  0  0  0  0  0  0
   21.8322  -14.3705    0.0000 C   0  0  0  0  0  0  0  0  0  0  0  0
   25.3728  -24.2473    0.0000 O   0  0  0  0  0  0  0  0  0  0  0  0
   28.9137  -22.1974    0.0000 C   0  0  0  0  0  0  0  0  0  0  0  0
   27.7024  -24.2473    0.0000 O   0  0  0  0  0  0  0  0  0  0  0  0
   30.0784  -20.1475    0.0000 C   0  0  0  0  0  0  0  0  0  0  0  0
   22.9969  -24.2473    0.0000 O   0  0  0  0  0  0  0  0  0  0  0  0
   21.8322  -22.1974    0.0000 C   0  0  0  0  0  0  0  0  0  0  0  0
   31.2431  -15.7683    0.0000 O   0  0  0  0  0  0  0  0  0  0  0  0
   21.8322  -11.6684    0.0000 C   0  0  0  0  0  0  0  0  0  0  0  0
   31.2897  -20.8464    0.0000 O   0  0  0  0  0  0  0  0  0  0  0  0
   30.0784  -18.7965    0.0000 O   0  0  0  0  0  0  0  0  0  0  0  0
   21.8322  -24.8997    0.0000 C   0  0  0  0  0  0  0  0  0  0  0  0
   21.8322  -10.2708    0.0000 O   0  0  0  0  0  0  0  0  0  0  0  0
   20.6209  -12.3207    0.0000 C   0  0  0  0  0  0  0  0  0  0  0  0
   20.6209  -24.2007    0.0000 O   0  0  0  0  0  0  0  0  0  0  0  0
   21.8322  -26.2507    0.0000 C   0  0  0  0  0  0  0  0  0  0  0  0
   20.6209   -9.6185    0.0000 C   0  0  0  0  0  0  0  0  0  0  0  0
   19.4563  -11.6684    0.0000 C   0  0  0  0  0  0  0  0  0  0  0  0
   20.6675  -13.7183    0.0000 O   0  0  0  0  0  0  0  0  0  0  0  0
   19.4562  -24.8997    0.0000 C   0  0  0  0  0  0  0  0  0  0  0  0
   20.6209  -26.9496    0.0000 C   0  0  0  0  0  0  0  0  0  0  0  0
   22.9969  -26.9496    0.0000 O   0  0  0  0  0  0  0  0  0  0  0  0
   19.4563  -10.3174    0.0000 C   0  0  0  0  0  0  0  0  0  0  0  0
   20.6209   -8.2675    0.0000 C   0  0  0  0  0  0  0  0  0  0  0  0
   18.2914  -12.3673    0.0000 O   0  0  0  0  0  0  0  0  0  0  0  0
   19.4562  -26.2507    0.0000 C   0  0  0  0  0  0  0  0  0  0  0  0
   18.2448  -24.2007    0.0000 C   0  0  0  0  0  0  0  0  0  0  0  0
   20.6209  -28.3006    0.0000 O   0  0  0  0  0  0  0  0  0  0  0  0
   18.2449   -9.6185    0.0000 O   0  0  0  0  0  0  0  0  0  0  0  0
   19.4563   -7.5687    0.0000 O   0  0  0  0  0  0  0  0  0  0  0  0
   18.2448  -26.9496    0.0000 O   0  0  0  0  0  0  0  0  0  0  0  0
   17.0800  -24.8997    0.0000 O   0  0  0  0  0  0  0  0  0  0  0  0
   30.0787  -17.8498    0.0000 O   0  0  0  0  0  0  0  0  0  0  0  0
   19.8906  -14.7079    0.0000 C   0  0  0  0  0  0  0  0  0  0  0  0
   19.8906  -18.4198    0.0000 C   0  0  0  0  0  0  0  0  0  0  0  0
   21.0112  -14.0075    0.0000 C   0  0  0  0  0  0  0  0  0  0  0  0
   18.6300  -14.0075    0.0000 C   0  0  0  0  0  0  0  0  0  0  0  0
   21.0112  -19.0502    0.0000 C   0  0  0  0  0  0  0  0  0  0  0  0
   18.7000  -19.0502    0.0000 C   0  0  0  0  0  0  0  0  0  0  0  0
   21.0112  -12.6768    0.0000 C   0  0  0  0  0  0  0  0  0  0  0  0
   22.2019  -14.7079    0.0000 C   0  0  0  0  0  0  0  0  0  0  0  0
   18.6300  -12.6067    0.0000 C   0  0  0  0  0  0  0  0  0  0  0  0
   17.5094  -14.7079    0.0000 C   0  0  0  0  0  0  0  0  0  0  0  0
   21.0112  -20.4509    0.0000 C   0  0  0  0  0  0  0  0  0  0  0  0
   22.2019  -18.4198    0.0000 C   0  0  0  0  0  0  0  0  0  0  0  0
   18.7000  -20.4509    0.0000 C   0  0  0  0  0  0  0  0  0  0  0  0
   17.5094  -18.4198    0.0000 C   0  0  0  0  0  0  0  0  0  0  0  0
   19.8906  -11.9764    0.0000 C   0  0  0  0  0  0  0  0  0  0  0  0
   22.2019  -11.9764    0.0000 C   0  0  0  0  0  0  0  0  0  0  0  0
   23.3925  -14.0075    0.0000 C   0  0  0  0  0  0  0  0  0  0  0  0
   17.5094  -11.9764    0.0000 C   0  0  0  0  0  0  0  0  0  0  0  0
   16.3187  -14.0075    0.0000 C   0  0  0  0  0  0  0  0  0  0  0  0
   19.8906  -21.0813    0.0000 C   0  0  0  0  0  0  0  0  0  0  0  0
   22.2019  -21.1513    0.0000 C   0  0  0  0  0  0  0  0  0  0  0  0
   23.3925  -19.1202    0.0000 C   0  0  0  0  0  0  0  0  0  0  0  0
   17.5094  -21.0813    0.0000 C   0  0  0  0  0  0  0  0  0  0  0  0
   16.3187  -19.0502    0.0000 C   0  0  0  0  0  0  0  0  0  0  0  0
   19.8906  -10.5757    0.0000 O   0  0  0  0  0  0  0  0  0  0  0  0
   23.3925  -12.6768    0.0000 C   0  0  0  0  0  0  0  0  0  0  0  0
   22.2019  -10.6457    0.0000 O   0  0  0  0  0  0  0  0  0  0  0  0
   24.5831  -14.7079    0.0000 C   0  0  0  0  0  0  0  0  0  0  0  0
   17.5094  -10.5757    0.0000 O   0  0  0  0  0  0  0  0  0  0  0  0
   16.3187  -12.6067    0.0000 C   0  0  0  0  0  0  0  0  0  0  0  0
   19.8906  -22.4820    0.0000 O   0  0  0  0  0  0  0  0  0  0  0  0
   23.3925  -20.4509    0.0000 C   0  0  0  0  0  0  0  0  0  0  0  0
   22.2019  -22.4820    0.0000 O   0  0  0  0  0  0  0  0  0  0  0  0
   24.5831  -18.4198    0.0000 C   0  0  0  0  0  0  0  0  0  0  0  0
   17.5094  -22.4820    0.0000 O   0  0  0  0  0  0  0  0  0  0  0  0
   16.3187  -20.4509    0.0000 C   0  0  0  0  0  0  0  0  0  0  0  0
   25.7037  -14.0075    0.0000 O   0  0  0  0  0  0  0  0  0  0  0  0
   16.3187   -9.9453    0.0000 C   0  0  0  0  0  0  0  0  0  0  0  0
   25.7738  -19.1202    0.0000 O   0  0  0  0  0  0  0  0  0  0  0  0
   24.5831  -17.0891    0.0000 O   0  0  0  0  0  0  0  0  0  0  0  0
   16.3187  -23.1824    0.0000 C   0  0  0  0  0  0  0  0  0  0  0  0
   16.3187   -8.5446    0.0000 O   0  0  0  0  0  0  0  0  0  0  0  0
   15.1281  -10.5757    0.0000 C   0  0  0  0  0  0  0  0  0  0  0  0
   15.1281  -22.4820    0.0000 O   0  0  0  0  0  0  0  0  0  0  0  0
   16.3187  -24.5131    0.0000 C   0  0  0  0  0  0  0  0  0  0  0  0
   15.1281   -7.8442    0.0000 C   0  0  0  0  0  0  0  0  0  0  0  0
   13.9374   -9.9453    0.0000 C   0  0  0  0  0  0  0  0  0  0  0  0
   15.1281  -11.9764    0.0000 O   0  0  0  0  0  0  0  0  0  0  0  0
   13.9374  -23.1824    0.0000 C   0  0  0  0  0  0  0  0  0  0  0  0
   15.1281  -25.2135    0.0000 C   0  0  0  0  0  0  0  0  0  0  0  0
   17.5094  -25.2135    0.0000 O   0  0  0  0  0  0  0  0  0  0  0  0
   13.9374   -8.5446    0.0000 C   0  0  0  0  0  0  0  0  0  0  0  0
   15.1281   -6.5135    0.0000 C   0  0  0  0  0  0  0  0  0  0  0  0
   12.7468  -10.6457    0.0000 O   0  0  0  0  0  0  0  0  0  0  0  0
   13.9374  -24.5131    0.0000 C   0  0  0  0  0  0  0  0  0  0  0  0
   12.7468  -22.4820    0.0000 C   0  0  0  0  0  0  0  0  0  0  0  0
   15.1281  -26.5442    0.0000 O   0  0  0  0  0  0  0  0  0  0  0  0
   12.7468   -7.8442    0.0000 O   0  0  0  0  0  0  0  0  0  0  0  0
   13.9374   -5.8131    0.0000 O   0  0  0  0  0  0  0  0  0  0  0  0
   12.7468  -25.2135    0.0000 O   0  0  0  0  0  0  0  0  0  0  0  0
   11.5562  -23.1824    0.0000 O   0  0  0  0  0  0  0  0  0  0  0  0
   24.5831  -16.1086    0.0000 O   0  0  0  0  0  0  0  0  0  0  0  0
   24.0800  -26.3900    0.0000 Ca  0  0  0  0  0  2  0  0  0  0  0  0
  1  2  1  0
  1  3  1  0
  1  4  1  0
  2  5  1  0
  2  6  2  0
  3  7  1  0
  4  8  2  0
  4  9  2  0
  5 10  1  0
  7 11  1  0
  7 12  2  0
 10 13  1  0
 11 14  1  0
 13 15  1  0
 13 16  1  0
 14 17  1  0
 15 18  1  0
 16 19  1  0
 17 20  1  0
 17 21  1  0
 18 22  1  0
 20 23  1  0
 21 24  1  0
 22 25  1  0
 23 26  1  0
 26 27  1  0
  4 28  1  0
 30 31  1  0
 30 32  1  6
 30 33  1  0
 31 34  1  1
 31 35  1  0
 32 36  1  0
 32 37  2  0
 33 38  2  0
 33 39  1  0
 34 40  1  0
 34 41  2  0
 35 42  2  0
 35 43  1  0
 36 44  1  0
 36 45  2  0
 37 46  1  0
 38 47  1  0
 39 48  2  0
 40 49  1  0
 40 50  2  0
 41 51  1  0
 42 52  1  0
 43 53  2  0
 44 54  2  0
 45 55  1  0
 45 56  1  0
 46 57  1  0
 47 58  1  0
 47 59  2  0
 49 60  2  0
 50 61  1  0
 50 62  1  0
 51 63  1  0
 52 64  1  0
 52 65  2  0
 57 66  1  0
 57 67  2  0
 68 58  1  1
 63 69  1  0
 63 70  2  0
 71 64  1  1
 68 72  1  0
 68 73  1  0
 71 74  1  0
 71 75  1  0
 72 76  1  0
 73 77  1  0
 73 78  1  6
 74 79  1  0
 75 80  1  0
 75 81  1  6
 76 82  1  0
 76 83  1  1
 77 84  1  1
 79 85  1  0
 79 86  1  1
 80 87  1  1
 82 88  1  6
 83 89  1  0
 85 90  1  6
 38 44  1  0
 42 49  1  0
 46 55  2  0
 48 59  1  0
 51 61  2  0
 53 65  1  0
 77 82  1  0
 80 85  1  0
 86 91  1  0
 92 93  1  0
 92 94  1  6
 92 95  1  0
 93 96  1  1
 93 97  1  0
 94 98  1  0
 94 99  2  0
 95100  2  0
 95101  1  0
 96102  1  0
 96103  2  0
 97104  2  0
 97105  1  0
 98106  1  0
 98107  2  0
 99108  1  0
100109  1  0
101110  2  0
102111  1  0
102112  2  0
103113  1  0
104114  1  0
105115  2  0
106116  2  0
107117  1  0
107118  1  0
108119  1  0
109120  1  0
109121  2  0
111122  2  0
112123  1  0
112124  1  0
113125  1  0
114126  1  0
114127  2  0
119128  1  0
119129  2  0
130120  1  1
125131  1  0
125132  2  0
133126  1  1
130134  1  0
130135  1  0
133136  1  0
133137  1  0
134138  1  0
135139  1  0
135140  1  6
136141  1  0
137142  1  0
137143  1  6
138144  1  0
138145  1  1
139146  1  1
141147  1  0
141148  1  1
142149  1  1
144150  1  6
145151  1  0
147152  1  6
100106  1  0
104111  1  0
108117  2  0
110121  1  0
113123  2  0
115127  1  0
139144  1  0
142147  1  0
148153  1  0
155156  1  0
155157  1  1
155158  1  0
156159  1  1
156160  1  0
157161  1  0
157162  2  0
158163  2  0
158164  1  0
159165  1  0
159166  2  0
160167  2  0
160168  1  0
161169  1  0
161170  2  0
162171  1  0
163172  1  0
164173  2  0
165174  1  0
165175  2  0
166176  1  0
167177  1  0
168178  2  0
169179  2  0
170180  1  0
170181  1  0
171182  1  0
172183  1  0
172184  2  0
174185  2  0
175186  1  0
175187  1  0
176188  1  0
177189  1  0
177190  2  0
182191  1  0
192183  1  1
188193  1  0
188194  2  0
195189  1  1
192196  1  0
192197  1  0
195198  1  0
195199  1  0
196200  1  0
197201  1  0
197202  1  6
198203  1  0
199204  1  0
199205  1  6
200206  1  0
200207  1  1
201208  1  1
203209  1  0
203210  1  1
204211  1  1
206212  1  6
207213  1  0
209214  1  6
163169  1  0
167174  1  0
171180  2  0
173184  1  0
176186  2  0
178190  1  0
201206  1  0
204209  1  0
210215  1  0
182216  2  0
217218  1  0
217219  1  1
217220  1  0
218221  1  1
218222  1  0
219223  1  0
219224  2  0
220225  2  0
220226  1  0
221227  1  0
221228  2  0
222229  2  0
222230  1  0
223231  1  0
223232  2  0
224233  1  0
225234  1  0
226235  2  0
227236  1  0
227237  2  0
228238  1  0
229239  1  0
230240  2  0
231241  2  0
232242  1  0
232243  1  0
233244  1  0
234245  1  0
234246  2  0
236247  2  0
237248  1  0
237249  1  0
238250  1  0
239251  1  0
239252  2  0
244253  1  0
254245  1  1
250255  1  0
250256  2  0
257251  1  1
254258  1  0
254259  1  0
257260  1  0
257261  1  0
258262  1  0
259263  1  0
259264  1  6
260265  1  0
261266  1  0
261267  1  6
262268  1  0
262269  1  1
263270  1  1
265271  1  0
265272  1  1
266273  1  1
268274  1  6
269275  1  0
271276  1  6
225231  1  0
229236  1  0
233242  2  0
235246  1  0
238248  2  0
240252  1  0
263268  1  0
266271  1  0
272277  1  0
244278  2  0
M  CHG  2  28  -1  29   1
M  END
