 
     RDKit          2D

 35 33  0  1  0  0  0  0  0  0999 V2000
   22.0858  -17.2962    0.0000 C   0  0  0  0  0  0  0  0  0  0  0  0
   23.3026  -17.9925    0.0000 C   0  0  0  0  0  0  0  0  0  0  0  0
   22.0858  -15.8920    0.0000 C   0  0  0  0  0  0  0  0  0  0  0  0
   20.8805  -17.9925    0.0000 N   0  0  0  0  0  0  0  0  0  0  0  0
   24.5137  -17.2904    0.0000 N   0  0  0  0  0  0  0  0  0  0  0  0
   23.3026  -19.3907    0.0000 O   0  0  0  0  0  0  0  0  0  0  0  0
   20.8805  -15.1959    0.0000 N   0  0  0  0  0  0  0  0  0  0  0  0
   23.3026  -15.1959    0.0000 N   0  0  0  0  0  0  0  0  0  0  0  0
   19.6636  -17.2962    0.0000 C   0  0  0  0  0  0  0  0  0  0  0  0
   25.7247  -17.9925    0.0000 C   0  0  0  0  0  0  0  0  0  0  0  0
   19.6636  -15.8920    0.0000 C   0  0  0  0  0  0  0  0  0  0  0  0
   18.4466  -17.9925    0.0000 Cl  0  0  0  0  0  0  0  0  0  0  0  0
   26.9358  -17.2904    0.0000 N   0  0  0  0  0  0  0  0  0  0  0  0
   25.7247  -19.3907    0.0000 N   0  0  0  0  0  0  0  0  0  0  0  0
   18.4466  -15.1959    0.0000 N   0  0  0  0  0  0  0  0  0  0  0  0
   32.0313  -18.1505    0.0000 O   0  0  0  0  0  0  0  0  0  0  0  0
   31.6217  -15.6801    0.0000 Cl  0  0  0  0  0  0  0  0  0  0  0  0
   32.0313  -18.1505    0.0000 O   0  0  0  0  0  0  0  0  0  0  0  0
   22.4791  -15.9596    0.0000 C   0  0  0  0  0  0  0  0  0  0  0  0
   22.4731  -17.3165    0.0000 C   0  0  0  0  0  0  0  0  0  0  0  0
   23.6605  -15.2870    0.0000 C   0  0  0  0  0  0  0  0  0  0  0  0
   21.3034  -15.2811    0.0000 S   0  0  0  0  0  0  0  0  0  0  0  0
   23.6430  -18.0010    0.0000 C   0  0  0  0  0  0  0  0  0  0  0  0
   21.3034  -17.9950    0.0000 N   0  0  0  0  0  0  0  0  0  0  0  0
   24.8304  -15.9713    0.0000 C   0  0  0  0  0  0  0  0  0  0  0  0
   20.1278  -15.9596    0.0000 N   0  0  0  0  0  0  0  0  0  0  0  0
   19.9933  -14.4564    0.0000 O   0  0  0  0  0  0  0  0  0  0  0  0
   22.5376  -14.4564    0.0000 O   0  0  0  0  0  0  0  0  0  0  0  0
   24.8244  -17.3282    0.0000 C   0  0  0  0  0  0  0  0  0  0  0  0
   20.1278  -17.3165    0.0000 C   0  0  0  0  0  0  0  0  0  0  0  0
   26.0118  -15.2987    0.0000 S   0  0  0  0  0  0  0  0  0  0  0  0
   26.0003  -18.0127    0.0000 Cl  0  0  0  0  0  0  0  0  0  0  0  0
   27.2636  -14.4623    0.0000 N   0  0  0  0  0  0  0  0  0  0  0  0
   27.1349  -16.3164    0.0000 O   0  0  0  0  0  0  0  0  0  0  0  0
   24.9357  -14.2516    0.0000 O   0  0  0  0  0  0  0  0  0  0  0  0
  1  2  1  0
  1  3  2  0
  1  4  1  0
  2  5  1  0
  2  6  2  0
  3  7  1  0
  3  8  1  0
  4  9  2  0
  5 10  1  0
  7 11  2  0
  9 12  1  0
 10 13  1  0
 10 14  2  0
 11 15  1  0
  9 11  1  0
 19 20  1  0
 19 21  2  0
 19 22  1  0
 20 23  2  0
 20 24  1  0
 21 25  1  0
 22 26  1  0
 22 27  2  0
 22 28  2  0
 23 29  1  0
 24 30  1  0
 25 31  1  0
 29 32  1  0
 31 33  1  0
 31 34  2  0
 31 35  2  0
 25 29  2  0
 26 30  1  0
M  STY  1   1 MUL
M  SLB  1   1   1
M  SCN  1   1 HT 
M  SAL   1  2  16  18
M  SPA   1  1  16
M  SDI   1  4   30.0300  -19.1100   30.0300  -17.2200
M  SDI   1  4   32.6200  -17.2200   32.6200  -19.1100
M  SMT   1 2
M  END
