 
     RDKit          2D

189196  0  0  1  0  0  0  0  0999 V2000
   33.4094  -17.0168    0.0000 C   0  0  0  0  0  0  0  0  0  0  0  0
   32.2455  -17.6911    0.0000 C   0  0  0  0  0  0  0  0  0  0  0  0
   34.5745  -17.6967    0.0000 C   0  0  0  0  0  0  0  0  0  0  0  0
   35.2692  -15.9227    0.0000 O   0  0  0  0  0  0  0  0  0  0  0  0
   33.3979  -15.6626    0.0000 C   0  0  0  0  0  0  0  0  0  0  0  0
   32.2455  -19.0336    0.0000 C   0  0  0  0  0  0  0  0  0  0  0  0
   31.0814  -17.0111    0.0000 C   0  0  0  0  0  0  0  0  0  0  0  0
   32.2396  -16.3195    0.0000 C   0  0  0  0  0  0  0  0  0  0  0  0
   34.5676  -19.0395    0.0000 C   0  0  0  0  0  0  0  0  0  0  0  0
   35.8931  -18.0539    0.0000 C   0  0  0  0  0  0  0  0  0  0  0  0
   36.6407  -15.9227    0.0000 C   0  0  0  0  0  0  0  0  0  0  0  0
   34.5851  -14.9768    0.0000 C   0  0  0  0  0  0  0  0  0  0  0  0
   32.2109  -14.9883    0.0000 O   0  0  0  0  0  0  0  0  0  0  0  0
   31.0758  -19.7079    0.0000 C   0  0  0  0  0  0  0  0  0  0  0  0
   29.9116  -17.6852    0.0000 C   0  0  0  0  0  0  0  0  0  0  0  0
   37.3207  -14.7357    0.0000 C   0  0  0  0  0  0  0  0  0  0  0  0
   37.3207  -17.1098    0.0000 O   0  0  0  0  0  0  0  0  0  0  0  0
   34.5736  -13.6053    0.0000 Cl  0  0  0  0  0  0  0  0  0  0  0  0
   29.9060  -19.0336    0.0000 C   0  0  0  0  0  0  0  0  0  0  0  0
   31.0814  -21.0563    0.0000 C   0  0  0  0  0  0  0  0  0  0  0  0
   28.7362  -16.9995    0.0000 O   0  0  0  0  0  0  0  0  0  0  0  0
   38.6969  -14.7425    0.0000 C   0  0  0  0  0  0  0  0  0  0  0  0
   36.9040  -13.4470    0.0000 O   0  0  0  0  0  0  0  0  0  0  0  0
   28.7418  -19.7079    0.0000 C   0  0  0  0  0  0  0  0  0  0  0  0
   29.9001  -20.3763    0.0000 Cl  0  0  0  0  0  0  0  0  0  0  0  0
   29.9116  -21.7363    0.0000 C   0  0  0  0  0  0  0  0  0  0  0  0
   39.1183  -13.4369    0.0000 C   0  0  0  0  0  0  0  0  0  0  0  0
   38.0098  -12.6305    0.0000 C   0  0  0  0  0  0  0  0  0  0  0  0
   28.7418  -21.0620    0.0000 C   0  0  0  0  0  0  0  0  0  0  0  0
   27.5721  -19.0336    0.0000 C   0  0  0  0  0  0  0  0  0  0  0  0
   28.7303  -18.3595    0.0000 C   0  0  0  0  0  0  0  0  0  0  0  0
   27.5721  -21.7363    0.0000 C   0  0  0  0  0  0  0  0  0  0  0  0
   26.4023  -19.7079    0.0000 C   0  0  0  0  0  0  0  0  0  0  0  0
   26.4023  -21.0620    0.0000 C   0  0  0  0  0  0  0  0  0  0  0  0
   25.2268  -21.7305    0.0000 O   0  0  0  0  0  0  0  0  0  0  0  0
   40.5985  -18.7593    0.0000 O   0  0  0  0  0  0  0  0  0  0  0  0
   32.6900  -17.8500    0.0000 C   0  0  0  0  0  0  0  0  0  0  0  0
   31.5700  -18.5500    0.0000 C   0  0  0  0  0  0  0  0  0  0  0  0
   33.8800  -18.5500    0.0000 C   0  0  0  0  0  0  0  0  0  0  0  0
   34.5800  -16.7300    0.0000 O   0  0  0  0  0  0  0  0  0  0  0  0
   32.6900  -16.5200    0.0000 C   0  0  0  0  0  0  0  0  0  0  0  0
   31.5700  -19.8800    0.0000 C   0  0  0  0  0  0  0  0  0  0  0  0
   30.3800  -17.8500    0.0000 C   0  0  0  0  0  0  0  0  0  0  0  0
   31.5700  -17.1500    0.0000 C   0  0  0  0  0  0  0  0  0  0  0  0
   33.8800  -19.8800    0.0000 C   0  0  0  0  0  0  0  0  0  0  0  0
   35.2100  -18.9000    0.0000 C   0  0  0  0  0  0  0  0  0  0  0  0
   35.9800  -16.7300    0.0000 C   0  0  0  0  0  0  0  0  0  0  0  0
   33.8800  -15.8200    0.0000 C   0  0  0  0  0  0  0  0  0  0  0  0
   31.5000  -15.8200    0.0000 O   0  0  0  0  0  0  0  0  0  0  0  0
   30.3800  -20.5800    0.0000 C   0  0  0  0  0  0  0  0  0  0  0  0
   29.1900  -18.5500    0.0000 C   0  0  0  0  0  0  0  0  0  0  0  0
   36.6100  -15.6100    0.0000 C   0  0  0  0  0  0  0  0  0  0  0  0
   36.6100  -17.9200    0.0000 O   0  0  0  0  0  0  0  0  0  0  0  0
   33.8800  -14.4200    0.0000 Cl  0  0  0  0  0  0  0  0  0  0  0  0
   29.1900  -19.8800    0.0000 C   0  0  0  0  0  0  0  0  0  0  0  0
   30.3800  -21.9100    0.0000 C   0  0  0  0  0  0  0  0  0  0  0  0
   28.0700  -17.8500    0.0000 O   0  0  0  0  0  0  0  0  0  0  0  0
   38.0100  -15.6100    0.0000 C   0  0  0  0  0  0  0  0  0  0  0  0
   36.1900  -14.2800    0.0000 O   0  0  0  0  0  0  0  0  0  0  0  0
   28.0700  -20.5800    0.0000 C   0  0  0  0  0  0  0  0  0  0  0  0
   29.1900  -21.2100    0.0000 Cl  0  0  0  0  0  0  0  0  0  0  0  0
   29.1900  -22.6100    0.0000 C   0  0  0  0  0  0  0  0  0  0  0  0
   38.4300  -14.2800    0.0000 C   0  0  0  0  0  0  0  0  0  0  0  0
   37.3100  -13.4400    0.0000 C   0  0  0  0  0  0  0  0  0  0  0  0
   28.0700  -21.9100    0.0000 C   0  0  0  0  0  0  0  0  0  0  0  0
   26.8800  -19.8800    0.0000 C   0  0  0  0  0  0  0  0  0  0  0  0
   28.0000  -19.1800    0.0000 C   0  0  0  0  0  0  0  0  0  0  0  0
   26.8800  -22.6100    0.0000 C   0  0  0  0  0  0  0  0  0  0  0  0
   25.6900  -20.5800    0.0000 C   0  0  0  0  0  0  0  0  0  0  0  0
   25.6900  -21.9100    0.0000 C   0  0  0  0  0  0  0  0  0  0  0  0
   24.5000  -22.5400    0.0000 O   0  0  0  0  0  0  0  0  0  0  0  0
   42.5268  -20.4767    0.0000 C   0  0  0  0  0  0  0  0  0  0  0  0
   43.7345  -21.1769    0.0000 C   0  0  0  0  0  0  0  0  0  0  0  0
   41.3191  -21.1769    0.0000 O   0  0  0  0  0  0  0  0  0  0  0  0
   42.5268  -19.0825    0.0000 O   0  0  0  0  0  0  0  0  0  0  0  0
   44.9479  -20.4767    0.0000 C   0  0  0  0  0  0  0  0  0  0  0  0
   46.1556  -21.1769    0.0000 C   0  0  0  0  0  0  0  0  0  0  0  0
   47.3633  -20.4767    0.0000 O   0  0  0  0  0  0  0  0  0  0  0  0
   46.1556  -22.5713    0.0000 O   0  0  0  0  0  0  0  0  0  0  0  0
   24.5700  -21.2100    0.0000 C   0  0  0  0  0  0  0  0  0  0  0  0
   23.3800  -21.9100    0.0000 C   0  0  0  0  0  0  0  0  0  0  0  0
   24.5700  -19.8100    0.0000 C   0  0  0  0  0  0  0  0  0  0  0  0
   25.7600  -21.9100    0.0000 C   0  0  0  0  0  0  0  0  0  0  0  0
   22.1200  -21.2100    0.0000 C   0  0  0  0  0  0  0  0  0  0  0  0
   23.3800  -19.1100    0.0000 C   0  0  0  0  0  0  0  0  0  0  0  0
   27.0200  -21.2100    0.0000 C   0  0  0  0  0  0  0  0  0  0  0  0
   25.7600  -23.3100    0.0000 O   0  0  0  0  0  0  0  0  0  0  0  0
   22.1200  -19.8100    0.0000 C   0  0  0  0  0  0  0  0  0  0  0  0
   20.9300  -21.9100    0.0000 N   0  0  0  0  0  0  0  0  0  0  0  0
   28.2100  -21.9100    0.0000 N   0  0  0  0  0  0  0  0  0  0  0  0
   20.9300  -19.1100    0.0000 O   0  0  0  0  0  0  0  0  0  0  0  0
   19.7400  -21.2100    0.0000 C   0  0  0  0  0  0  0  0  0  0  0  0
   29.4000  -21.2100    0.0000 C   0  0  0  0  0  0  0  0  0  0  0  0
   18.4800  -21.9100    0.0000 O   0  0  0  0  0  0  0  0  0  0  0  0
   30.5900  -21.9100    0.0000 C   0  0  0  0  0  0  0  0  0  0  0  0
   29.4000  -19.8100    0.0000 C   0  0  0  0  0  0  0  0  0  0  0  0
   31.8500  -21.2100    0.0000 C   0  0  0  0  0  0  0  0  0  0  0  0
   31.8500  -19.8100    0.0000 C   0  0  0  0  0  0  0  0  0  0  0  0
   33.0400  -21.9100    0.0000 C   0  0  0  0  0  0  0  0  0  0  0  0
   33.0400  -19.1100    0.0000 C   0  0  0  0  0  0  0  0  0  0  0  0
   34.2300  -21.2100    0.0000 C   0  0  0  0  0  0  0  0  0  0  0  0
   34.2300  -19.8100    0.0000 C   0  0  0  0  0  0  0  0  0  0  0  0
   35.4900  -19.0400    0.0000 O   0  0  0  0  0  0  0  0  0  0  0  0
   36.6800  -19.7400    0.0000 C   0  0  0  0  0  0  0  0  0  0  0  0
   24.5700  -21.2100    0.0000 C   0  0  0  0  0  0  0  0  0  0  0  0
   23.3800  -21.9100    0.0000 C   0  0  0  0  0  0  0  0  0  0  0  0
   22.1200  -21.2100    0.0000 C   0  0  0  0  0  0  0  0  0  0  0  0
   22.1200  -19.8100    0.0000 C   0  0  0  0  0  0  0  0  0  0  0  0
   20.9300  -19.1100    0.0000 O   0  0  0  0  0  0  0  0  0  0  0  0
   23.3800  -19.1100    0.0000 C   0  0  0  0  0  0  0  0  0  0  0  0
   24.5700  -19.8100    0.0000 C   0  0  0  0  0  0  0  0  0  0  0  0
   20.9300  -21.9100    0.0000 N   0  0  0  0  0  0  0  0  0  0  0  0
   19.7400  -21.2100    0.0000 C   0  0  0  0  0  0  0  0  0  0  0  0
   18.4800  -21.9100    0.0000 O   0  0  0  0  0  0  0  0  0  0  0  0
   25.7600  -21.9100    0.0000 C   0  0  0  0  0  0  0  0  0  0  0  0
   27.0200  -21.2100    0.0000 C   0  0  0  0  0  0  0  0  0  0  0  0
   28.2100  -21.9100    0.0000 N   0  0  0  0  0  0  0  0  0  0  0  0
   29.4000  -21.2100    0.0000 C   0  0  0  0  0  0  0  0  0  0  0  0
   30.5900  -21.9100    0.0000 C   0  0  0  0  0  0  0  0  0  0  0  0
   31.8500  -21.2100    0.0000 C   0  0  0  0  0  0  0  0  0  0  0  0
   31.8500  -19.8100    0.0000 C   0  0  0  0  0  0  0  0  0  0  0  0
   33.0400  -19.1100    0.0000 C   0  0  0  0  0  0  0  0  0  0  0  0
   34.2300  -19.8100    0.0000 C   0  0  0  0  0  0  0  0  0  0  0  0
   35.4900  -19.0400    0.0000 O   0  0  0  0  0  0  0  0  0  0  0  0
   36.6800  -19.7400    0.0000 C   0  0  0  0  0  0  0  0  0  0  0  0
   34.2300  -21.2100    0.0000 C   0  0  0  0  0  0  0  0  0  0  0  0
   33.0400  -21.9100    0.0000 C   0  0  0  0  0  0  0  0  0  0  0  0
   29.4000  -19.8100    0.0000 C   0  0  0  0  0  0  0  0  0  0  0  0
   25.7600  -23.3100    0.0000 O   0  0  0  0  0  0  0  0  0  0  0  0
   46.7600  -20.0900    0.0000 O   0  0  0  0  0  0  0  0  0  0  0  0
   38.0100  -20.8600    0.0000 C   0  0  0  0  0  0  0  0  0  0  0  0
   39.2000  -21.5600    0.0000 C   0  0  0  0  0  0  0  0  0  0  0  0
   36.7500  -21.5600    0.0000 O   0  0  0  0  0  0  0  0  0  0  0  0
   38.0100  -19.4600    0.0000 O   0  0  0  0  0  0  0  0  0  0  0  0
   40.3900  -20.8600    0.0000 C   0  0  0  0  0  0  0  0  0  0  0  0
   41.5800  -21.5600    0.0000 C   0  0  0  0  0  0  0  0  0  0  0  0
   42.8400  -20.8600    0.0000 O   0  0  0  0  0  0  0  0  0  0  0  0
   41.5800  -22.8900    0.0000 O   0  0  0  0  0  0  0  0  0  0  0  0
   20.0200  -21.5600    0.0000 C   0  0  0  0  0  0  0  0  0  0  0  0
   18.8300  -22.2600    0.0000 C   0  0  0  0  0  0  0  0  0  0  0  0
   20.0200  -20.1600    0.0000 C   0  0  0  0  0  0  0  0  0  0  0  0
   21.2100  -22.2600    0.0000 C   0  0  0  0  0  0  0  0  0  0  0  0
   17.5700  -21.5600    0.0000 C   0  0  0  0  0  0  0  0  0  0  0  0
   18.8300  -19.4600    0.0000 C   0  0  0  0  0  0  0  0  0  0  0  0
   22.4700  -21.5600    0.0000 C   0  0  0  0  0  0  0  0  0  0  0  0
   21.2100  -23.6600    0.0000 O   0  0  0  0  0  0  0  0  0  0  0  0
   17.5700  -20.1600    0.0000 C   0  0  0  0  0  0  0  0  0  0  0  0
   16.3800  -22.2600    0.0000 N   0  0  0  0  0  0  0  0  0  0  0  0
   23.6600  -22.2600    0.0000 N   0  0  0  0  0  0  0  0  0  0  0  0
   16.3800  -19.4600    0.0000 O   0  0  0  0  0  0  0  0  0  0  0  0
   15.1900  -21.5600    0.0000 C   0  0  0  0  0  0  0  0  0  0  0  0
   24.8500  -21.5600    0.0000 C   0  0  0  0  0  0  0  0  0  0  0  0
   13.9300  -22.2600    0.0000 O   0  0  0  0  0  0  0  0  0  0  0  0
   26.0400  -22.2600    0.0000 C   0  0  0  0  0  0  0  0  0  0  0  0
   24.8500  -20.1600    0.0000 C   0  0  0  0  0  0  0  0  0  0  0  0
   27.3000  -21.5600    0.0000 C   0  0  0  0  0  0  0  0  0  0  0  0
   27.3000  -20.1600    0.0000 C   0  0  0  0  0  0  0  0  0  0  0  0
   28.4900  -22.2600    0.0000 C   0  0  0  0  0  0  0  0  0  0  0  0
   28.4900  -19.4600    0.0000 C   0  0  0  0  0  0  0  0  0  0  0  0
   29.6800  -21.5600    0.0000 C   0  0  0  0  0  0  0  0  0  0  0  0
   29.6800  -20.1600    0.0000 C   0  0  0  0  0  0  0  0  0  0  0  0
   30.9400  -19.3900    0.0000 O   0  0  0  0  0  0  0  0  0  0  0  0
   32.1300  -20.0900    0.0000 C   0  0  0  0  0  0  0  0  0  0  0  0
   46.6900  -21.9100    0.0000 O   0  0  0  0  0  0  0  0  0  0  0  0
   20.0200  -21.5600    0.0000 C   0  0  0  0  0  0  0  0  0  0  0  0
   18.8300  -22.2600    0.0000 C   0  0  0  0  0  0  0  0  0  0  0  0
   17.5700  -21.5600    0.0000 C   0  0  0  0  0  0  0  0  0  0  0  0
   17.5700  -20.1600    0.0000 C   0  0  0  0  0  0  0  0  0  0  0  0
   16.3800  -19.4600    0.0000 O   0  0  0  0  0  0  0  0  0  0  0  0
   18.8300  -19.4600    0.0000 C   0  0  0  0  0  0  0  0  0  0  0  0
   20.0200  -20.1600    0.0000 C   0  0  0  0  0  0  0  0  0  0  0  0
   16.3800  -22.2600    0.0000 N   0  0  0  0  0  0  0  0  0  0  0  0
   15.1900  -21.5600    0.0000 C   0  0  0  0  0  0  0  0  0  0  0  0
   13.9300  -22.2600    0.0000 O   0  0  0  0  0  0  0  0  0  0  0  0
   21.2100  -22.2600    0.0000 C   0  0  0  0  0  0  0  0  0  0  0  0
   22.4700  -21.5600    0.0000 C   0  0  0  0  0  0  0  0  0  0  0  0
   23.6600  -22.2600    0.0000 N   0  0  0  0  0  0  0  0  0  0  0  0
   24.8500  -21.5600    0.0000 C   0  0  0  0  0  0  0  0  0  0  0  0
   26.0400  -22.2600    0.0000 C   0  0  0  0  0  0  0  0  0  0  0  0
   27.3000  -21.5600    0.0000 C   0  0  0  0  0  0  0  0  0  0  0  0
   27.3000  -20.1600    0.0000 C   0  0  0  0  0  0  0  0  0  0  0  0
   28.4900  -19.4600    0.0000 C   0  0  0  0  0  0  0  0  0  0  0  0
   29.6800  -20.1600    0.0000 C   0  0  0  0  0  0  0  0  0  0  0  0
   30.9400  -19.3900    0.0000 O   0  0  0  0  0  0  0  0  0  0  0  0
   32.1300  -20.0900    0.0000 C   0  0  0  0  0  0  0  0  0  0  0  0
   29.6800  -21.5600    0.0000 C   0  0  0  0  0  0  0  0  0  0  0  0
   28.4900  -22.2600    0.0000 C   0  0  0  0  0  0  0  0  0  0  0  0
   24.8500  -20.1600    0.0000 C   0  0  0  0  0  0  0  0  0  0  0  0
   21.2100  -23.6600    0.0000 O   0  0  0  0  0  0  0  0  0  0  0  0
  1  2  1  0
  1  3  1  0
  1  4  1  6
  1  5  1  0
  2  6  1  0
  2  7  1  0
  2  8  1  1
  3  9  1  0
  3 10  1  6
  4 11  1  0
  5 12  1  0
  5 13  2  0
  6 14  1  0
  7 15  1  0
 11 16  1  0
 11 17  2  0
 12 18  1  0
 14 19  1  0
 14 20  1  6
 15 21  1  1
 16 22  2  0
 16 23  1  0
 19 24  1  0
 19 25  1  6
 20 26  1  0
 22 27  1  0
 23 28  1  0
 24 29  1  0
 24 30  1  0
 24 31  1  1
 29 32  2  0
 30 33  2  0
 32 34  1  0
 34 35  2  0
  6  9  1  1
 15 19  1  0
 26 29  1  0
 27 28  2  0
 33 34  1  0
 37 38  1  0
 37 39  1  0
 37 40  1  6
 37 41  1  0
 38 42  1  0
 38 43  1  0
 38 44  1  1
 39 45  1  0
 39 46  1  6
 40 47  1  0
 41 48  1  0
 41 49  2  0
 42 50  1  0
 43 51  1  0
 47 52  1  0
 47 53  2  0
 48 54  1  0
 50 55  1  0
 50 56  1  6
 51 57  1  1
 52 58  2  0
 52 59  1  0
 55 60  1  0
 55 61  1  6
 56 62  1  0
 58 63  1  0
 59 64  1  0
 60 65  1  0
 60 66  1  0
 60 67  1  1
 65 68  2  0
 66 69  2  0
 68 70  1  0
 70 71  2  0
 42 45  1  1
 51 55  1  0
 62 65  1  0
 63 64  2  0
 69 70  1  0
 72 73  1  0
 72 74  1  0
 72 75  2  0
 73 76  2  0
 76 77  1  0
 77 78  1  0
 77 79  2  0
 80 81  2  0
 80 82  1  0
 80 83  1  0
 81 84  1  0
 82 85  2  0
 83 86  1  0
 83 87  1  0
 84 88  2  0
 84 89  1  0
 86 90  1  0
 88 91  1  0
 89 92  1  0
 90 93  1  0
 92 94  2  0
 93 95  1  0
 93 96  1  0
 95 97  1  0
 97 98  2  0
 97 99  1  0
 98100  1  0
 99101  2  0
100102  2  0
102103  1  0
103104  1  0
 85 88  1  0
101102  1  0
105106  2  0
105111  1  0
105115  1  0
106107  1  0
111110  2  0
115116  1  0
115129  1  0
107108  2  0
107112  1  0
116117  1  0
108109  1  0
112113  1  0
117118  1  0
113114  2  0
118119  1  0
118128  1  0
119120  1  0
120121  2  0
120127  1  0
121122  1  0
127126  2  0
122123  2  0
123124  1  0
124125  1  0
110108  1  0
126123  1  0
131132  1  0
131133  1  0
131134  2  0
132135  2  0
135136  1  0
136137  1  0
136138  2  0
139140  2  0
139141  1  0
139142  1  0
140143  1  0
141144  2  0
142145  1  0
142146  1  0
143147  2  0
143148  1  0
145149  1  0
147150  1  0
148151  1  0
149152  1  0
151153  2  0
152154  1  0
152155  1  0
154156  1  0
156157  2  0
156158  1  0
157159  1  0
158160  2  0
159161  2  0
161162  1  0
162163  1  0
144147  1  0
160161  1  0
165166  2  0
165171  1  0
165175  1  0
166167  1  0
171170  2  0
175176  1  0
175189  1  0
167168  2  0
167172  1  0
176177  1  0
168169  1  0
172173  1  0
177178  1  0
173174  2  0
178179  1  0
178188  1  0
179180  1  0
180181  2  0
180187  1  0
181182  1  0
187186  2  0
182183  2  0
183184  1  0
184185  1  0
170168  1  0
186183  1  0
M  END
