 
     RDKit          2D

141142  0  1  1  0  0  0  0  0999 V2000
   33.7005  -19.8340    0.0000 C   0  0  0  0  0  0  0  0  0  0  0  0
   34.9177  -19.1312    0.0000 C   0  0  0  0  0  0  0  0  0  0  0  0
   36.1351  -19.8340    0.0000 C   0  0  0  0  0  0  0  0  0  0  0  0
   37.3523  -19.1312    0.0000 C   0  0  0  0  0  0  0  0  0  0  0  0
   38.5716  -19.8352    0.0000 O   0  0  0  0  0  0  0  0  0  0  0  0
   37.3523  -17.7256    0.0000 O   0  0  0  0  0  0  0  0  0  0  0  0
   32.4832  -19.1312    0.0000 O   0  0  0  0  0  0  0  0  0  0  0  0
   33.7005  -21.2396    0.0000 O   0  0  0  0  0  0  0  0  0  0  0  0
   34.3000  -11.9000    0.0000 C   0  0  0  0  0  0  0  0  0  0  0  0
   34.3000  -13.3000    0.0000 C   0  0  0  0  0  0  0  0  0  0  0  0
   35.4900  -14.0000    0.0000 C   0  0  0  0  0  0  0  0  0  0  0  0
   36.7500  -13.3000    0.0000 C   0  0  0  0  0  0  0  0  0  0  0  0
   36.7500  -11.9000    0.0000 C   0  0  0  0  0  0  0  0  0  0  0  0
   35.4900  -11.2000    0.0000 C   0  0  0  0  0  0  0  0  0  0  0  0
   37.9400  -11.2000    0.0000 O   0  0  0  0  0  0  0  0  0  0  0  0
   39.0600  -11.9000    0.0000 C   0  0  0  0  0  0  0  0  0  0  0  0
   33.1800  -14.0000    0.0000 C   0  0  0  0  0  0  0  0  0  0  0  0
   37.9400  -14.0000    0.0000 O   0  0  0  0  0  0  0  0  0  0  0  0
   39.1300  -13.3000    0.0000 C   0  0  0  0  0  0  0  0  0  0  0  0
   40.3900  -14.0000    0.0000 C   0  0  0  0  0  0  0  0  0  0  0  0
   41.5800  -13.3000    0.0000 C   0  0  0  0  0  0  0  0  0  0  0  0
   42.7700  -14.0000    0.0000 O   0  0  0  0  0  0  0  0  0  0  0  0
   43.9600  -13.3000    0.0000 C   0  0  0  0  0  0  0  0  0  0  0  0
   31.9900  -13.3000    0.0000 C   0  0  0  0  0  0  0  0  0  0  0  0
   30.8000  -14.0000    0.0000 C   0  0  0  0  0  0  0  0  0  0  0  0
   29.6100  -13.3000    0.0000 C   0  0  0  0  0  0  0  0  0  0  0  0
   28.3500  -14.0000    0.0000 C   0  0  0  0  0  0  0  0  0  0  0  0
   27.1600  -13.3000    0.0000 C   0  0  0  0  0  0  0  0  0  0  0  0
   25.9700  -14.0000    0.0000 C   0  0  0  0  0  0  0  0  0  0  0  0
   24.7800  -13.3000    0.0000 C   0  0  0  0  0  0  0  0  0  0  0  0
   23.5900  -14.0000    0.0000 N   0  0  0  0  0  0  0  0  0  0  0  0
   22.4000  -13.3000    0.0000 C   0  0  0  0  0  0  0  0  0  0  0  0
   21.2100  -14.0000    0.0000 C   0  0  0  0  0  0  0  0  0  0  0  0
   20.0200  -13.3000    0.0000 C   0  0  0  0  0  0  0  0  0  0  0  0
   18.8300  -14.0000    0.0000 N   0  0  0  0  0  0  0  0  0  0  0  0
   24.7800  -11.9000    0.0000 O   0  0  0  0  0  0  0  0  0  0  0  0
   20.0200  -11.9000    0.0000 O   0  0  0  0  0  0  0  0  0  0  0  0
   25.9700  -15.1900    0.0000 C   0  0  0  0  0  0  0  0  0  0  0  0
   24.7800  -15.7500    0.0000 C   0  0  0  0  0  0  0  0  0  0  0  0
   27.1600  -15.7500    0.0000 C   0  0  0  0  0  0  0  0  0  0  0  0
   28.3500  -15.4000    0.0000 O   0  0  0  0  0  0  0  0  0  0  0  0
   29.6100  -11.9000    0.0000 N   0  0  0  0  0  0  0  0  0  0  0  0
   31.9900  -11.3400    0.0000 C   0  0  0  0  0  0  0  0  0  0  0  0
   33.1800  -10.6400    0.0000 C   0  0  0  0  0  0  0  0  0  0  0  0
   30.8000  -10.7100    0.0000 C   0  0  0  0  0  0  0  0  0  0  0  0
   20.2300  -14.9800    0.0000 C   0  0  0  0  0  0  0  0  0  0  0  0
   22.1900  -14.9800    0.0000 C   0  0  0  0  0  0  0  0  0  0  0  0
   34.3000  -11.9000    0.0000 C   0  0  0  0  0  0  0  0  0  0  0  0
   34.3000  -13.3000    0.0000 C   0  0  0  0  0  0  0  0  0  0  0  0
   35.4900  -14.0000    0.0000 C   0  0  0  0  0  0  0  0  0  0  0  0
   36.7500  -13.3000    0.0000 C   0  0  0  0  0  0  0  0  0  0  0  0
   36.7500  -11.9000    0.0000 C   0  0  0  0  0  0  0  0  0  0  0  0
   35.4900  -11.2000    0.0000 C   0  0  0  0  0  0  0  0  0  0  0  0
   37.9400  -11.2000    0.0000 O   0  0  0  0  0  0  0  0  0  0  0  0
   39.0600  -11.9000    0.0000 C   0  0  0  0  0  0  0  0  0  0  0  0
   37.9400  -14.0000    0.0000 O   0  0  0  0  0  0  0  0  0  0  0  0
   39.1300  -13.3000    0.0000 C   0  0  0  0  0  0  0  0  0  0  0  0
   40.3900  -14.0000    0.0000 C   0  0  0  0  0  0  0  0  0  0  0  0
   41.5800  -13.3000    0.0000 C   0  0  0  0  0  0  0  0  0  0  0  0
   42.7700  -14.0000    0.0000 O   0  0  0  0  0  0  0  0  0  0  0  0
   43.9600  -13.3000    0.0000 C   0  0  0  0  0  0  0  0  0  0  0  0
   33.1800  -14.0000    0.0000 C   0  0  0  0  0  0  0  0  0  0  0  0
   31.9900  -13.3000    0.0000 C   0  0  0  0  0  0  0  0  0  0  0  0
   30.8000  -14.0000    0.0000 C   0  0  0  0  0  0  0  0  0  0  0  0
   29.6100  -13.3000    0.0000 C   0  0  0  0  0  0  0  0  0  0  0  0
   28.3500  -14.0000    0.0000 C   0  0  0  0  0  0  0  0  0  0  0  0
   27.1600  -13.3000    0.0000 C   0  0  0  0  0  0  0  0  0  0  0  0
   25.9700  -14.0000    0.0000 C   0  0  0  0  0  0  0  0  0  0  0  0
   24.7800  -13.3000    0.0000 C   0  0  0  0  0  0  0  0  0  0  0  0
   23.5900  -14.0000    0.0000 N   0  0  0  0  0  0  0  0  0  0  0  0
   22.4000  -13.3000    0.0000 C   0  0  0  0  0  0  0  0  0  0  0  0
   21.2100  -14.0000    0.0000 C   0  0  0  0  0  0  0  0  0  0  0  0
   20.0200  -13.3000    0.0000 C   0  0  0  0  0  0  0  0  0  0  0  0
   18.8300  -14.0000    0.0000 N   0  0  0  0  0  0  0  0  0  0  0  0
   20.0200  -11.9000    0.0000 O   0  0  0  0  0  0  0  0  0  0  0  0
   20.2300  -14.9800    0.0000 C   0  0  0  0  0  0  0  0  0  0  0  0
   22.1900  -14.9800    0.0000 C   0  0  0  0  0  0  0  0  0  0  0  0
   24.7800  -11.9000    0.0000 O   0  0  0  0  0  0  0  0  0  0  0  0
   25.9700  -15.1900    0.0000 C   0  0  0  0  0  0  0  0  0  0  0  0
   24.7800  -15.7500    0.0000 C   0  0  0  0  0  0  0  0  0  0  0  0
   27.1600  -15.7500    0.0000 C   0  0  0  0  0  0  0  0  0  0  0  0
   28.3500  -15.4000    0.0000 O   0  0  0  0  0  0  0  0  0  0  0  0
   29.6100  -11.9000    0.0000 N   0  0  0  0  0  0  0  0  0  0  0  0
   31.9900  -11.3400    0.0000 C   0  0  0  0  0  0  0  0  0  0  0  0
   33.1800  -10.6400    0.0000 C   0  0  0  0  0  0  0  0  0  0  0  0
   30.8000  -10.7100    0.0000 C   0  0  0  0  0  0  0  0  0  0  0  0
   29.5695  -18.6304    0.0000 C   0  0  0  0  0  0  0  0  0  0  0  0
   28.3142  -19.3278    0.0000 C   0  0  0  0  0  0  0  0  0  0  0  0
   30.7550  -19.3278    0.0000 C   0  0  0  0  0  0  0  0  0  0  0  0
   29.5698  -17.2357    0.0000 S   0  0  0  0  0  0  0  0  0  0  0  0
   28.3142  -20.6528    0.0000 C   0  0  0  0  0  0  0  0  0  0  0  0
   30.7550  -20.6528    0.0000 C   0  0  0  0  0  0  0  0  0  0  0  0
   29.5698  -15.8409    0.0000 O   0  0  0  0  0  0  0  0  0  0  0  0
   28.1750  -17.2357    0.0000 O   0  0  0  0  0  0  0  0  0  0  0  0
   30.9645  -17.2357    0.0000 O   0  0  0  0  0  0  0  0  0  0  0  0
   29.5695  -21.3502    0.0000 C   0  0  0  0  0  0  0  0  0  0  0  0
   19.3368  -16.0762    0.0000 C   0  0  0  0  0  0  0  0  0  0  0  0
   20.5198  -15.3803    0.0000 C   0  0  0  0  0  0  0  0  0  0  0  0
   18.1539  -15.3803    0.0000 C   0  0  0  0  0  0  0  0  0  0  0  0
   19.3368  -18.4421    0.0000 C   0  0  0  0  0  0  0  0  0  0  0  0
   20.5198  -13.9886    0.0000 C   0  0  0  0  0  0  0  0  0  0  0  0
   21.7028  -16.0762    0.0000 C   0  0  0  0  0  0  0  0  0  0  0  0
   18.1539  -13.9886    0.0000 C   0  0  0  0  0  0  0  0  0  0  0  0
   16.9709  -16.0066    0.0000 C   0  0  0  0  0  0  0  0  0  0  0  0
   20.5198  -19.1380    0.0000 C   0  0  0  0  0  0  0  0  0  0  0  0
   18.1539  -19.1380    0.0000 C   0  0  0  0  0  0  0  0  0  0  0  0
   19.3368  -13.2927    0.0000 N   0  0  0  0  0  0  0  0  0  0  0  0
   21.7028  -13.2927    0.0000 C   0  0  0  0  0  0  0  0  0  0  0  0
   22.8858  -15.3803    0.0000 O   0  0  0  0  0  0  0  0  0  0  0  0
   21.7028  -17.3983    0.0000 O   0  0  0  0  0  0  0  0  0  0  0  0
   16.9709  -13.2927    0.0000 C   0  0  0  0  0  0  0  0  0  0  0  0
   15.7879  -15.3803    0.0000 O   0  0  0  0  0  0  0  0  0  0  0  0
   16.9709  -17.3983    0.0000 O   0  0  0  0  0  0  0  0  0  0  0  0
   20.5198  -20.4601    0.0000 C   0  0  0  0  0  0  0  0  0  0  0  0
   21.7028  -18.4421    0.0000 Cl  0  0  0  0  0  0  0  0  0  0  0  0
   18.1539  -20.4601    0.0000 C   0  0  0  0  0  0  0  0  0  0  0  0
   22.8858  -13.9886    0.0000 O   0  0  0  0  0  0  0  0  0  0  0  0
   24.0687  -16.0762    0.0000 C   0  0  0  0  0  0  0  0  0  0  0  0
   14.6049  -16.0066    0.0000 C   0  0  0  0  0  0  0  0  0  0  0  0
   19.3368  -21.1560    0.0000 C   0  0  0  0  0  0  0  0  0  0  0  0
   24.0687  -13.2927    0.0000 C   0  0  0  0  0  0  0  0  0  0  0  0
   25.2517  -15.3803    0.0000 C   0  0  0  0  0  0  0  0  0  0  0  0
   25.2517  -13.9886    0.0000 C   0  0  0  0  0  0  0  0  0  0  0  0
   26.4347  -13.2927    0.0000 N   0  0  0  0  0  0  0  0  0  0  0  0
   22.4791  -15.9596    0.0000 C   0  0  0  0  0  0  0  0  0  0  0  0
   22.4731  -17.3165    0.0000 C   0  0  0  0  0  0  0  0  0  0  0  0
   23.6605  -15.2870    0.0000 C   0  0  0  0  0  0  0  0  0  0  0  0
   21.3034  -15.2811    0.0000 S   0  0  0  0  0  0  0  0  0  0  0  0
   23.6430  -18.0010    0.0000 C   0  0  0  0  0  0  0  0  0  0  0  0
   21.3034  -17.9950    0.0000 N   0  0  0  0  0  0  0  0  0  0  0  0
   24.8304  -15.9713    0.0000 C   0  0  0  0  0  0  0  0  0  0  0  0
   20.1278  -15.9596    0.0000 N   0  0  0  0  0  0  0  0  0  0  0  0
   19.9933  -14.4564    0.0000 O   0  0  0  0  0  0  0  0  0  0  0  0
   22.5376  -14.4564    0.0000 O   0  0  0  0  0  0  0  0  0  0  0  0
   24.8244  -17.3282    0.0000 C   0  0  0  0  0  0  0  0  0  0  0  0
   20.1278  -17.3165    0.0000 C   0  0  0  0  0  0  0  0  0  0  0  0
   26.0118  -15.2987    0.0000 S   0  0  0  0  0  0  0  0  0  0  0  0
   26.0003  -18.0127    0.0000 Cl  0  0  0  0  0  0  0  0  0  0  0  0
   27.2636  -14.4623    0.0000 N   0  0  0  0  0  0  0  0  0  0  0  0
   27.1349  -16.3164    0.0000 O   0  0  0  0  0  0  0  0  0  0  0  0
   24.9357  -14.2516    0.0000 O   0  0  0  0  0  0  0  0  0  0  0  0
  1  2  1  0
  2  3  2  0
  3  4  1  0
  4  5  1  0
  4  6  2  0
  1  7  1  0
  1  8  2  0
  9 10  2  0
 10 11  1  0
 11 12  2  0
 12 13  1  0
 13 14  2  0
  9 14  1  0
 13 15  1  0
 15 16  1  0
 10 17  1  0
 12 18  1  0
 18 19  1  0
 19 20  1  0
 20 21  1  0
 21 22  1  0
 22 23  1  0
 24 17  1  1
 24 25  1  0
 25 26  1  0
 26 27  1  0
 27 28  1  0
 29 28  1  1
 29 30  1  0
 30 31  1  0
 31 32  1  0
 32 33  1  0
 33 34  1  0
 34 35  1  0
 30 36  2  0
 34 37  2  0
 38 39  1  0
 38 40  1  0
 29 38  1  0
 27 41  1  1
 26 42  1  1
 43 44  1  0
 43 45  1  0
 24 43  1  0
 33 46  1  0
 33 47  1  0
 48 49  2  0
 49 50  1  0
 50 51  2  0
 51 52  1  0
 52 53  2  0
 48 53  1  0
 52 54  1  0
 54 55  1  0
 49 62  1  0
 51 56  1  0
 56 57  1  0
 57 58  1  0
 58 59  1  0
 59 60  1  0
 60 61  1  0
 63 62  1  1
 63 64  1  0
 64 65  1  0
 65 66  1  0
 66 67  1  0
 68 67  1  1
 68 69  1  0
 69 70  1  0
 70 71  1  0
 71 72  1  0
 72 73  1  0
 73 74  1  0
 69 78  2  0
 73 75  2  0
 79 80  1  0
 79 81  1  0
 68 79  1  0
 66 82  1  1
 65 83  1  1
 84 85  1  0
 84 86  1  0
 63 84  1  0
 72 76  1  0
 72 77  1  0
 87 88  2  0
 87 89  1  0
 87 90  1  0
 88 91  1  0
 89 92  2  0
 90 93  1  0
 90 94  2  0
 90 95  2  0
 91 96  2  0
 92 96  1  0
 97 98  1  0
 97 99  1  0
 97100  1  0
 98101  2  0
 98102  1  0
 99103  2  0
 99104  1  0
100105  2  0
100106  1  0
101107  1  0
101108  1  0
102109  1  0
102110  2  0
103111  1  0
104112  1  0
104113  2  0
105114  1  0
105115  1  0
106116  2  0
108117  1  0
109118  1  0
112119  1  0
114120  2  0
117121  1  0
118122  1  0
121123  1  0
123124  1  0
103107  1  0
116120  1  0
125126  1  0
125127  2  0
125128  1  0
126129  2  0
126130  1  0
127131  1  0
128132  1  0
128133  2  0
128134  2  0
129135  1  0
130136  1  0
131137  1  0
135138  1  0
137139  1  0
137140  2  0
137141  2  0
131135  2  0
132136  1  0
M  STY  1   1 MUL
M  SLB  1   1   1
M  SCN  1   1 HT 
M  SAL   1 15   9  10  11  12  13  14  15  16  17  18  19  20  21  22  23
M  SAL   1 15  24  25  26  27  28  29  30  31  32  33  34  35  36  37  38
M  SAL   1 15  39  40  41  42  43  44  45  46  47  48  49  50  51  52  53
M  SAL   1 15  54  55  56  57  58  59  60  61  62  63  64  65  66  67  68
M  SAL   1 15  69  70  71  72  73  74  75  76  77  78  79  80  81  82  83
M  SAL   1  3  84  85  86
M  SPA   1 15   9  10  11  12  13  14  15  16  18  19  20  21  22  23  17
M  SPA   1 15  24  25  26  27  28  29  30  31  32  33  34  35  37  46  47
M  SPA   1  9  36  38  39  40  41  42  43  44  45
M  SDI   1  4   17.2200  -17.0800   17.2200   -9.8700
M  SDI   1  4   45.4300   -9.8700   45.4300  -17.0800
M  SMT   1 2
M  END
