 
     RDKit          2D

 43 42  0  0  0  0  0  0  0  0999 V2000
   36.8941  -13.6110    0.0000 C   0  0  0  0  0  0  0  0  0  0  0  0
   35.6829  -12.9146    0.0000 C   0  0  0  0  0  0  0  0  0  0  0  0
   38.2201  -13.1736    0.0000 S   0  0  0  0  0  0  0  0  0  0  0  0
   36.9094  -15.0237    0.0000 C   0  0  0  0  0  0  0  0  0  0  0  0
   34.4717  -13.6110    0.0000 C   0  0  0  0  0  0  0  0  0  0  0  0
   39.0590  -14.2996    0.0000 C   0  0  0  0  0  0  0  0  0  0  0  0
   38.2452  -15.4388    0.0000 N   0  0  0  0  0  0  0  0  0  0  0  0
   35.7838  -15.8568    0.0000 O   0  0  0  0  0  0  0  0  0  0  0  0
   33.2605  -12.9146    0.0000 C   0  0  0  0  0  0  0  0  0  0  0  0
   34.4717  -15.0153    0.0000 C   0  0  0  0  0  0  0  0  0  0  0  0
   40.4533  -14.2854    0.0000 O   0  0  0  0  0  0  0  0  0  0  0  0
   32.0493  -13.6110    0.0000 C   0  0  0  0  0  0  0  0  0  0  0  0
   33.2605  -15.7115    0.0000 C   0  0  0  0  0  0  0  0  0  0  0  0
   32.0493  -15.0153    0.0000 C   0  0  0  0  0  0  0  0  0  0  0  0
   30.8323  -15.7115    0.0000 O   0  0  0  0  0  0  0  0  0  0  0  0
   29.6211  -15.0153    0.0000 C   0  0  0  0  0  0  0  0  0  0  0  0
   28.4099  -15.7115    0.0000 C   0  0  0  0  0  0  0  0  0  0  0  0
   27.1987  -15.0153    0.0000 N   0  0  0  0  0  0  0  0  0  0  0  0
   25.9875  -15.7115    0.0000 C   0  0  0  0  0  0  0  0  0  0  0  0
   27.1987  -13.6110    0.0000 C   0  0  0  0  0  0  0  0  0  0  0  0
   25.9933  -17.1217    0.0000 C   0  0  0  0  0  0  0  0  0  0  0  0
   24.7763  -15.0211    0.0000 N   0  0  0  0  0  0  0  0  0  0  0  0
   24.7763  -17.8179    0.0000 C   0  0  0  0  0  0  0  0  0  0  0  0
   23.5651  -15.7174    0.0000 C   0  0  0  0  0  0  0  0  0  0  0  0
   23.5651  -17.1217    0.0000 C   0  0  0  0  0  0  0  0  0  0  0  0
   34.3185  -20.2162    0.0000 C   0  0  0  0  0  0  0  0  0  0  0  0
   33.6434  -19.0515    0.0000 C   0  0  0  0  0  0  0  0  0  0  0  0
   33.7189  -21.4564    0.0000 O   0  0  0  0  0  0  0  0  0  0  0  0
   35.6691  -20.2099    0.0000 O   0  0  0  0  0  0  0  0  0  0  0  0
   32.0265  -19.0577    0.0000 C   0  0  0  0  0  0  0  0  0  0  0  0
   31.3575  -20.2285    0.0000 C   0  0  0  0  0  0  0  0  0  0  0  0
   30.0069  -20.2285    0.0000 O   0  0  0  0  0  0  0  0  0  0  0  0
   32.0390  -21.4625    0.0000 O   0  0  0  0  0  0  0  0  0  0  0  0
   25.2991  -19.3605    0.0000 C   0  0  0  0  0  0  0  0  0  0  0  0
   24.0935  -18.6673    0.0000 N   0  0  0  0  0  0  0  0  0  0  0  0
   26.5163  -18.6673    0.0000 N   0  0  0  0  0  0  0  0  0  0  0  0
   25.2991  -20.7640    0.0000 N   0  0  0  0  0  0  0  0  0  0  0  0
   22.8764  -19.3605    0.0000 C   0  0  0  0  0  0  0  0  0  0  0  0
   27.7278  -19.3605    0.0000 C   0  0  0  0  0  0  0  0  0  0  0  0
   26.5163  -17.2579    0.0000 C   0  0  0  0  0  0  0  0  0  0  0  0
   21.6649  -18.6673    0.0000 N   0  0  0  0  0  0  0  0  0  0  0  0
   22.8764  -20.7640    0.0000 N   0  0  0  0  0  0  0  0  0  0  0  0
   31.1135  -18.2132    0.0000 Cl  0  0  0  0  0  0  0  0  0  0  0  0
  1  2  1  0
  1  3  1  0
  1  4  1  0
  2  5  1  0
  3  6  1  0
  4  7  1  0
  4  8  2  0
  5  9  2  0
  5 10  1  0
  6 11  2  0
  9 12  1  0
 10 13  2  0
 12 14  2  0
 14 15  1  0
 15 16  1  0
 16 17  1  0
 17 18  1  0
 18 19  1  0
 18 20  1  0
 19 21  2  0
 19 22  1  0
 21 23  1  0
 22 24  2  0
 23 25  2  0
  6  7  1  0
 13 14  1  0
 24 25  1  0
 26 27  1  0
 26 28  1  0
 26 29  2  0
 27 30  2  0
 30 31  1  0
 31 32  1  0
 31 33  2  0
 34 35  1  0
 34 36  1  0
 34 37  2  0
 35 38  1  0
 36 39  1  0
 36 40  1  0
 38 41  1  0
 38 42  2  0
M  END
