 
     RDKit          2D

 70 75  0  0  0  0  0  0  0  0999 V2000
    5.1800  -12.9500    0.0000 C   0  0  0  0  0  0  0  0  0  0  0  0
    5.1800  -14.3500    0.0000 C   0  0  0  0  0  0  0  0  0  0  0  0
    6.3924  -15.0500    0.0000 C   0  0  0  0  0  0  0  0  0  0  0  0
    7.6049  -14.3500    0.0000 C   0  0  0  0  0  0  0  0  0  0  0  0
    7.6049  -12.9500    0.0000 C   0  0  0  0  0  0  0  0  0  0  0  0
    6.3924  -12.2500    0.0000 C   0  0  0  0  0  0  0  0  0  0  0  0
    8.8360  -12.2390    0.0000 C   0  0  0  0  0  0  0  0  0  0  0  0
   10.0412  -12.9347    0.0000 C   0  0  0  0  0  0  0  0  0  0  0  0
   11.2535  -12.2346    0.0000 C   0  0  0  0  0  0  0  0  0  0  0  0
   11.2535  -10.8346    0.0000 C   0  0  0  0  0  0  0  0  0  0  0  0
   10.0483  -10.1389    0.0000 C   0  0  0  0  0  0  0  0  0  0  0  0
    8.8359  -10.8390    0.0000 C   0  0  0  0  0  0  0  0  0  0  0  0
    6.3924  -10.8502    0.0000 C   0  0  0  0  0  0  0  0  0  0  0  0
    7.5103  -10.0378    0.0000 N   0  0  0  0  0  0  0  0  0  0  0  0
    7.0831   -8.7236    0.0000 N   0  0  0  0  0  0  0  0  0  0  0  0
    5.7012   -8.7237    0.0000 N   0  0  0  0  0  0  0  0  0  0  0  0
    5.2743  -10.0381    0.0000 N   0  0  0  0  0  0  0  0  0  0  0  0
   12.4714  -10.1312    0.0000 C   0  0  0  0  0  0  0  0  0  0  0  0
   13.6834  -10.8307    0.0000 N   0  0  0  0  0  0  0  0  0  0  0  0
   13.6834  -12.2307    0.0000 C   0  0  0  0  0  0  0  0  0  0  0  0
   15.0148  -12.6634    0.0000 C   0  0  0  0  0  0  0  0  0  0  0  0
   15.8378  -11.5307    0.0000 N   0  0  0  0  0  0  0  0  0  0  0  0
   15.0148  -10.3981    0.0000 C   0  0  0  0  0  0  0  0  0  0  0  0
   12.5198  -13.0762    0.0000 O   0  0  0  0  0  0  0  0  0  0  0  0
   15.0148   -8.9981    0.0000 C   0  0  0  0  0  0  0  0  0  0  0  0
   16.1875   -8.3215    0.0000 C   0  0  0  0  0  0  0  0  0  0  0  0
   17.3902   -9.0164    0.0000 C   0  0  0  0  0  0  0  0  0  0  0  0
   14.1834  -13.7856    0.0000 C   0  0  0  0  0  0  0  0  0  0  0  0
   14.9992  -14.9234    0.0000 C   0  0  0  0  0  0  0  0  0  0  0  0
   16.3334  -14.4992    0.0000 C   0  0  0  0  0  0  0  0  0  0  0  0
   16.3422  -13.0992    0.0000 C   0  0  0  0  0  0  0  0  0  0  0  0
   18.5743   -8.3332    0.0000 C   0  0  0  0  0  0  0  0  0  0  0  0
   29.5695  -18.6304    0.0000 C   0  0  0  0  0  0  0  0  0  0  0  0
   28.3142  -19.3278    0.0000 C   0  0  0  0  0  0  0  0  0  0  0  0
   30.7550  -19.3278    0.0000 C   0  0  0  0  0  0  0  0  0  0  0  0
   29.5698  -17.2357    0.0000 S   0  0  0  0  0  0  0  0  0  0  0  0
   28.3142  -20.6528    0.0000 C   0  0  0  0  0  0  0  0  0  0  0  0
   30.7550  -20.6528    0.0000 C   0  0  0  0  0  0  0  0  0  0  0  0
   29.5698  -15.8409    0.0000 O   0  0  0  0  0  0  0  0  0  0  0  0
   28.1750  -17.2357    0.0000 O   0  0  0  0  0  0  0  0  0  0  0  0
   30.9645  -17.2357    0.0000 O   0  0  0  0  0  0  0  0  0  0  0  0
   29.5695  -21.3502    0.0000 C   0  0  0  0  0  0  0  0  0  0  0  0
   19.3368  -16.0762    0.0000 C   0  0  0  0  0  0  0  0  0  0  0  0
   20.5198  -15.3803    0.0000 C   0  0  0  0  0  0  0  0  0  0  0  0
   18.1539  -15.3803    0.0000 C   0  0  0  0  0  0  0  0  0  0  0  0
   19.3368  -18.4421    0.0000 C   0  0  0  0  0  0  0  0  0  0  0  0
   20.5198  -13.9886    0.0000 C   0  0  0  0  0  0  0  0  0  0  0  0
   21.7028  -16.0762    0.0000 C   0  0  0  0  0  0  0  0  0  0  0  0
   18.1539  -13.9886    0.0000 C   0  0  0  0  0  0  0  0  0  0  0  0
   16.9709  -16.0066    0.0000 C   0  0  0  0  0  0  0  0  0  0  0  0
   20.5198  -19.1380    0.0000 C   0  0  0  0  0  0  0  0  0  0  0  0
   18.1539  -19.1380    0.0000 C   0  0  0  0  0  0  0  0  0  0  0  0
   19.3368  -13.2927    0.0000 N   0  0  0  0  0  0  0  0  0  0  0  0
   21.7028  -13.2927    0.0000 C   0  0  0  0  0  0  0  0  0  0  0  0
   22.8858  -15.3803    0.0000 O   0  0  0  0  0  0  0  0  0  0  0  0
   21.7028  -17.3983    0.0000 O   0  0  0  0  0  0  0  0  0  0  0  0
   16.9709  -13.2927    0.0000 C   0  0  0  0  0  0  0  0  0  0  0  0
   15.7879  -15.3803    0.0000 O   0  0  0  0  0  0  0  0  0  0  0  0
   16.9709  -17.3983    0.0000 O   0  0  0  0  0  0  0  0  0  0  0  0
   20.5198  -20.4601    0.0000 C   0  0  0  0  0  0  0  0  0  0  0  0
   21.7028  -18.4421    0.0000 Cl  0  0  0  0  0  0  0  0  0  0  0  0
   18.1539  -20.4601    0.0000 C   0  0  0  0  0  0  0  0  0  0  0  0
   22.8858  -13.9886    0.0000 O   0  0  0  0  0  0  0  0  0  0  0  0
   24.0687  -16.0762    0.0000 C   0  0  0  0  0  0  0  0  0  0  0  0
   14.6049  -16.0066    0.0000 C   0  0  0  0  0  0  0  0  0  0  0  0
   19.3368  -21.1560    0.0000 C   0  0  0  0  0  0  0  0  0  0  0  0
   24.0687  -13.2927    0.0000 C   0  0  0  0  0  0  0  0  0  0  0  0
   25.2517  -15.3803    0.0000 C   0  0  0  0  0  0  0  0  0  0  0  0
   25.2517  -13.9886    0.0000 C   0  0  0  0  0  0  0  0  0  0  0  0
   26.4347  -13.2927    0.0000 N   0  0  0  0  0  0  0  0  0  0  0  0
  1  2  2  0
  2  3  1  0
  3  4  2  0
  4  5  1  0
  5  6  2  0
  1  6  1  0
  5  7  1  0
  7  8  2  0
  8  9  1  0
  9 10  2  0
 10 11  1  0
 11 12  2  0
  7 12  1  0
  6 13  1  0
 13 14  2  0
 14 15  1  0
 15 16  2  0
 16 17  1  0
 13 17  1  0
 10 18  1  0
 18 19  1  0
 19 20  1  0
 20 21  1  0
 21 22  1  0
 22 23  2  0
 19 23  1  0
 20 24  2  0
 23 25  1  0
 25 26  1  0
 26 27  1  0
 21 28  1  0
 28 29  1  0
 29 30  1  0
 30 31  1  0
 21 31  1  0
 27 32  1  0
 33 34  2  0
 33 35  1  0
 33 36  1  0
 34 37  1  0
 35 38  2  0
 36 39  1  0
 36 40  2  0
 36 41  2  0
 37 42  2  0
 38 42  1  0
 43 44  1  0
 43 45  1  0
 43 46  1  0
 44 47  2  0
 44 48  1  0
 45 49  2  0
 45 50  1  0
 46 51  2  0
 46 52  1  0
 47 53  1  0
 47 54  1  0
 48 55  1  0
 48 56  2  0
 49 57  1  0
 50 58  1  0
 50 59  2  0
 51 60  1  0
 51 61  1  0
 52 62  2  0
 54 63  1  0
 55 64  1  0
 58 65  1  0
 60 66  2  0
 63 67  1  0
 64 68  1  0
 67 69  1  0
 69 70  1  0
 49 53  1  0
 62 66  1  0
M  END
