 
     RDKit          2D

 77 81  0  0  1  0  0  0  0  0999 V2000
   34.7054  -15.2068    0.0000 O   0  0  0  0  0  0  0  0  0  0  0  0
   34.2524  -13.3741    0.0000 Br  0  0  0  0  0  0  0  0  0  0  0  0
   24.6400  -15.4000    0.0000 C   0  0  0  0  0  0  0  0  0  0  0  0
   24.6400  -16.8000    0.0000 C   0  0  0  0  0  0  0  0  0  0  0  0
   25.8524  -17.5000    0.0000 C   0  0  0  0  0  0  0  0  0  0  0  0
   27.0649  -16.8000    0.0000 C   0  0  0  0  0  0  0  0  0  0  0  0
   27.0649  -15.4000    0.0000 C   0  0  0  0  0  0  0  0  0  0  0  0
   25.8524  -14.7000    0.0000 C   0  0  0  0  0  0  0  0  0  0  0  0
   28.2773  -14.7000    0.0000 C   0  0  0  0  0  0  0  0  0  0  0  0
   28.2773  -13.3000    0.0000 C   0  0  0  0  0  0  0  0  0  0  0  0
   27.0649  -12.6000    0.0000 C   0  0  0  0  0  0  0  0  0  0  0  0
   25.8524  -13.3000    0.0000 C   0  0  0  0  0  0  0  0  0  0  0  0
   27.0649  -11.2000    0.0000 C   0  0  0  0  0  0  0  0  0  0  0  0
   25.8524  -10.5000    0.0000 C   0  0  0  0  0  0  0  0  0  0  0  0
   24.6400  -11.2000    0.0000 C   0  0  0  0  0  0  0  0  0  0  0  0
   24.6400  -12.6000    0.0000 C   0  0  0  0  0  0  0  0  0  0  0  0
   23.4276  -10.5000    0.0000 O   0  0  0  0  0  0  0  0  0  0  0  0
   22.2321  -11.1904    0.0000 C   0  0  0  0  0  0  0  0  0  0  0  0
   27.0649  -14.0000    0.0000 C   0  0  0  0  0  0  0  0  0  0  0  0
   29.4918  -15.4012    0.0000 N   0  0  0  0  0  0  0  0  0  0  0  0
   29.4918  -14.0012    0.0000 C   0  0  0  0  0  0  0  0  0  0  0  0
   30.8918  -15.4012    0.0000 C   0  0  0  0  0  0  0  0  0  0  0  0
   19.1695  -25.8213    0.0000 C   0  0  0  0  0  0  0  0  0  0  0  0
   20.3898  -25.1264    0.0000 C   0  0  0  0  0  0  0  0  0  0  0  0
   19.1636  -27.2226    0.0000 C   0  0  0  0  0  0  0  0  0  0  0  0
   17.9666  -25.1206    0.0000 C   0  0  0  0  0  0  0  0  0  0  0  0
   20.3956  -23.7251    0.0000 C   0  0  0  0  0  0  0  0  0  0  0  0
   21.6100  -25.8330    0.0000 C   0  0  0  0  0  0  0  0  0  0  0  0
   17.9666  -27.9291    0.0000 C   0  0  0  0  0  0  0  0  0  0  0  0
   20.3782  -27.9348    0.0000 N   0  0  0  0  0  0  0  0  0  0  0  0
   16.7463  -25.8213    0.0000 C   0  0  0  0  0  0  0  0  0  0  0  0
   21.6217  -23.0186    0.0000 C   0  0  0  0  0  0  0  0  0  0  0  0
   19.1812  -23.0070    0.0000 O   0  0  0  0  0  0  0  0  0  0  0  0
   21.6042  -27.2342    0.0000 C   0  0  0  0  0  0  0  0  0  0  0  0
   16.7463  -27.2226    0.0000 C   0  0  0  0  0  0  0  0  0  0  0  0
   15.5319  -25.1206    0.0000 O   0  0  0  0  0  0  0  0  0  0  0  0
   23.0581  -22.1429    0.0000 N   0  0  0  0  0  0  0  0  0  0  0  0
   20.8919  -21.9734    0.0000 C   0  0  0  0  0  0  0  0  0  0  0  0
   15.5319  -23.7193    0.0000 C   0  0  0  0  0  0  0  0  0  0  0  0
   23.0581  -20.9050    0.0000 C   0  0  0  0  0  0  0  0  0  0  0  0
   24.5586  -22.9485    0.0000 C   0  0  0  0  0  0  0  0  0  0  0  0
   22.3049  -21.1385    0.0000 C   0  0  0  0  0  0  0  0  0  0  0  0
   22.3107  -20.1518    0.0000 C   0  0  0  0  0  0  0  0  0  0  0  0
   23.8639  -21.8391    0.0000 C   0  0  0  0  0  0  0  0  0  0  0  0
   21.7736  -18.8497    0.0000 C   0  0  0  0  0  0  0  0  0  0  0  0
   22.6376  -17.7405    0.0000 C   0  0  0  0  0  0  0  0  0  0  0  0
   28.9727  -21.0527    0.0000 S   0  0  0  0  0  0  0  0  0  0  0  0
   30.3683  -21.0584    0.0000 O   0  0  0  0  0  0  0  0  0  0  0  0
   27.5773  -21.0527    0.0000 O   0  0  0  0  0  0  0  0  0  0  0  0
   28.9670  -22.4481    0.0000 O   0  0  0  0  0  0  0  0  0  0  0  0
   28.9670  -19.6514    0.0000 O   0  0  0  0  0  0  0  0  0  0  0  0
   29.7500  -25.6200    0.0000 O   0  0  0  0  0  0  0  0  0  0  0  0
   19.1695  -25.8213    0.0000 C   0  0  0  0  0  0  0  0  0  0  0  0
   20.3898  -25.1264    0.0000 C   0  0  0  0  0  0  0  0  0  0  0  0
   20.3956  -23.7251    0.0000 C   0  0  0  0  0  0  0  0  0  0  0  0
   21.6217  -23.0186    0.0000 C   0  0  0  0  0  0  0  0  0  0  0  0
   23.0581  -22.1429    0.0000 N   0  0  0  0  0  0  0  0  0  0  0  0
   23.0581  -20.9050    0.0000 C   0  0  0  0  0  0  0  0  0  0  0  0
   22.3107  -20.1518    0.0000 C   0  0  0  0  0  0  0  0  0  0  0  0
   21.7736  -18.8497    0.0000 C   0  0  0  0  0  0  0  0  0  0  0  0
   22.6376  -17.7405    0.0000 C   0  0  0  0  0  0  0  0  0  0  0  0
   22.3049  -21.1385    0.0000 C   0  0  0  0  0  0  0  0  0  0  0  0
   20.8919  -21.9734    0.0000 C   0  0  0  0  0  0  0  0  0  0  0  0
   23.8639  -21.8391    0.0000 C   0  0  0  0  0  0  0  0  0  0  0  0
   24.5586  -22.9485    0.0000 C   0  0  0  0  0  0  0  0  0  0  0  0
   19.1812  -23.0070    0.0000 O   0  0  0  0  0  0  0  0  0  0  0  0
   21.6100  -25.8330    0.0000 C   0  0  0  0  0  0  0  0  0  0  0  0
   21.6042  -27.2342    0.0000 C   0  0  0  0  0  0  0  0  0  0  0  0
   20.3782  -27.9348    0.0000 N   0  0  0  0  0  0  0  0  0  0  0  0
   19.1636  -27.2226    0.0000 C   0  0  0  0  0  0  0  0  0  0  0  0
   17.9666  -27.9291    0.0000 C   0  0  0  0  0  0  0  0  0  0  0  0
   16.7463  -27.2226    0.0000 C   0  0  0  0  0  0  0  0  0  0  0  0
   16.7463  -25.8213    0.0000 C   0  0  0  0  0  0  0  0  0  0  0  0
   17.9666  -25.1206    0.0000 C   0  0  0  0  0  0  0  0  0  0  0  0
   15.5319  -25.1206    0.0000 O   0  0  0  0  0  0  0  0  0  0  0  0
   15.5319  -23.7193    0.0000 C   0  0  0  0  0  0  0  0  0  0  0  0
   29.7500  -25.6200    0.0000 O   0  0  0  0  0  0  0  0  0  0  0  0
  3  4  1  0
  4  5  1  0
  5  6  1  0
  7  6  1  1
  7  8  1  0
  8  3  1  6
  7  9  1  0
  9 10  1  6
 10 11  1  0
 11 12  2  0
  8 12  1  0
 11 13  1  0
 13 14  2  0
 14 15  1  0
 15 16  2  0
 12 16  1  0
 15 17  1  0
 17 18  1  0
  8 19  1  0
  9 20  1  0
 20 21  1  0
 21 19  1  0
 20 22  1  0
 47 48  1  0
 47 49  1  0
 47 50  2  0
 47 51  2  0
 23 24  1  0
 23 25  1  0
 23 26  2  0
 24 27  1  0
 24 28  2  0
 25 29  2  0
 25 30  1  0
 26 31  1  0
 27 32  1  0
 27 33  1  6
 28 34  1  0
 29 35  1  0
 31 36  1  0
 32 37  1  0
 32 38  1  6
 36 39  1  0
 37 40  1  0
 37 41  1  0
 38 42  1  0
 40 43  1  0
 41 44  1  0
 43 45  1  1
 45 46  2  0
 30 34  2  0
 31 35  2  0
 42 43  1  0
 42 44  1  0
 53 54  1  0
 53 70  2  0
 53 74  1  0
 54 55  1  0
 54 67  2  0
 70 71  1  0
 70 69  1  0
 74 73  2  0
 55 56  1  0
 55 66  1  6
 67 68  1  0
 71 72  2  0
 73 75  1  0
 56 57  1  0
 56 63  1  6
 75 76  1  0
 57 58  1  0
 57 65  1  0
 63 62  1  0
 58 59  1  0
 65 64  1  0
 59 60  1  1
 60 61  2  0
 69 68  2  0
 73 72  1  0
 62 59  1  0
 62 64  1  0
M  END
