 
     RDKit          2D

 71 71  0  1  0  0  0  0  0  0999 V2000
   24.3463   -9.3353    0.0000 C   0  0  0  0  0  0  0  0  0  0  0  0
   25.5331   -8.6372    0.0000 C   0  0  0  0  0  0  0  0  0  0  0  0
   23.1595   -8.7070    0.0000 C   0  0  0  0  0  0  0  0  0  0  0  0
   26.7896   -9.3353    0.0000 C   0  0  0  0  0  0  0  0  0  0  0  0
   21.9030   -9.4051    0.0000 O   0  0  0  0  0  0  0  0  0  0  0  0
   23.1595   -7.2410    0.0000 O   0  0  0  0  0  0  0  0  0  0  0  0
   27.9764   -8.6372    0.0000 O   0  0  0  0  0  0  0  0  0  0  0  0
   26.7896  -10.7315    0.0000 O   0  0  0  0  0  0  0  0  0  0  0  0
   11.2700   -7.3500    0.0000 C   0  0  0  0  0  0  0  0  0  0  0  0
   12.5300   -8.0500    0.0000 C   0  0  0  0  0  0  0  0  0  0  0  0
   10.0800   -8.0500    0.0000 C   0  0  0  0  0  0  0  0  0  0  0  0
   11.2700   -5.9500    0.0000 O   0  0  0  0  0  0  0  0  0  0  0  0
   12.5300   -9.4500    0.0000 C   0  0  0  0  0  0  0  0  0  0  0  0
   10.0800   -9.4500    0.0000 C   0  0  0  0  0  0  0  0  0  0  0  0
   12.5300   -5.3200    0.0000 C   0  0  0  0  0  0  0  0  0  0  0  0
   11.2700  -10.1500    0.0000 C   0  0  0  0  0  0  0  0  0  0  0  0
   13.7200   -5.9500    0.0000 C   0  0  0  0  0  0  0  0  0  0  0  0
   11.2700  -11.5500    0.0000 C   0  0  0  0  0  0  0  0  0  0  0  0
   14.9100   -5.3200    0.0000 C   0  0  0  0  0  0  0  0  0  0  0  0
   13.7200   -7.3500    0.0000 O   0  0  0  0  0  0  0  0  0  0  0  0
   10.0800  -12.2500    0.0000 O   0  0  0  0  0  0  0  0  0  0  0  0
   16.1700   -5.9500    0.0000 N   0  0  0  0  0  0  0  0  0  0  0  0
    8.8900  -11.5500    0.0000 C   0  0  0  0  0  0  0  0  0  0  0  0
   17.3600   -5.3200    0.0000 C   0  0  0  0  0  0  0  0  0  0  0  0
    7.7000  -12.2500    0.0000 C   0  0  0  0  0  0  0  0  0  0  0  0
   18.5500   -5.9500    0.0000 C   0  0  0  0  0  0  0  0  0  0  0  0
   17.3600   -3.9200    0.0000 C   0  0  0  0  0  0  0  0  0  0  0  0
    6.5100  -11.5500    0.0000 O   0  0  0  0  0  0  0  0  0  0  0  0
    5.3200  -12.2500    0.0000 C   0  0  0  0  0  0  0  0  0  0  0  0
    4.0600  -11.5500    0.0000 C   0  0  0  0  0  0  0  0  0  0  0  0
    5.3200  -13.6500    0.0000 C   0  0  0  0  0  0  0  0  0  0  0  0
   11.2700   -7.3500    0.0000 C   0  0  0  0  0  0  0  0  0  0  0  0
   12.5300   -8.0500    0.0000 C   0  0  0  0  0  0  0  0  0  0  0  0
   12.5300   -9.4500    0.0000 C   0  0  0  0  0  0  0  0  0  0  0  0
   11.2700  -10.1500    0.0000 C   0  0  0  0  0  0  0  0  0  0  0  0
   11.2700  -11.5500    0.0000 C   0  0  0  0  0  0  0  0  0  0  0  0
   10.0800  -12.2500    0.0000 O   0  0  0  0  0  0  0  0  0  0  0  0
    8.8900  -11.5500    0.0000 C   0  0  0  0  0  0  0  0  0  0  0  0
    7.7000  -12.2500    0.0000 C   0  0  0  0  0  0  0  0  0  0  0  0
    6.5100  -11.5500    0.0000 O   0  0  0  0  0  0  0  0  0  0  0  0
    5.3200  -12.2500    0.0000 C   0  0  0  0  0  0  0  0  0  0  0  0
    4.0600  -11.5500    0.0000 C   0  0  0  0  0  0  0  0  0  0  0  0
    5.3200  -13.6500    0.0000 C   0  0  0  0  0  0  0  0  0  0  0  0
   10.0800   -9.4500    0.0000 C   0  0  0  0  0  0  0  0  0  0  0  0
   10.0800   -8.0500    0.0000 C   0  0  0  0  0  0  0  0  0  0  0  0
   11.2700   -5.9500    0.0000 O   0  0  0  0  0  0  0  0  0  0  0  0
   12.5300   -5.3200    0.0000 C   0  0  0  0  0  0  0  0  0  0  0  0
   13.7200   -5.9500    0.0000 C   0  0  0  0  0  0  0  0  0  0  0  0
   14.9100   -5.3200    0.0000 C   0  0  0  0  0  0  0  0  0  0  0  0
   16.1700   -5.9500    0.0000 N   0  0  0  0  0  0  0  0  0  0  0  0
   17.3600   -5.3200    0.0000 C   0  0  0  0  0  0  0  0  0  0  0  0
   18.5500   -5.9500    0.0000 C   0  0  0  0  0  0  0  0  0  0  0  0
   17.3600   -3.9200    0.0000 C   0  0  0  0  0  0  0  0  0  0  0  0
   13.7200   -7.3500    0.0000 O   0  0  0  0  0  0  0  0  0  0  0  0
   22.4791  -15.9596    0.0000 C   0  0  0  0  0  0  0  0  0  0  0  0
   22.4731  -17.3165    0.0000 C   0  0  0  0  0  0  0  0  0  0  0  0
   23.6605  -15.2870    0.0000 C   0  0  0  0  0  0  0  0  0  0  0  0
   21.3034  -15.2811    0.0000 S   0  0  0  0  0  0  0  0  0  0  0  0
   23.6430  -18.0010    0.0000 C   0  0  0  0  0  0  0  0  0  0  0  0
   21.3034  -17.9950    0.0000 N   0  0  0  0  0  0  0  0  0  0  0  0
   24.8304  -15.9713    0.0000 C   0  0  0  0  0  0  0  0  0  0  0  0
   20.1278  -15.9596    0.0000 N   0  0  0  0  0  0  0  0  0  0  0  0
   19.9933  -14.4564    0.0000 O   0  0  0  0  0  0  0  0  0  0  0  0
   22.5376  -14.4564    0.0000 O   0  0  0  0  0  0  0  0  0  0  0  0
   24.8244  -17.3282    0.0000 C   0  0  0  0  0  0  0  0  0  0  0  0
   20.1278  -17.3165    0.0000 C   0  0  0  0  0  0  0  0  0  0  0  0
   26.0118  -15.2987    0.0000 S   0  0  0  0  0  0  0  0  0  0  0  0
   26.0003  -18.0127    0.0000 Cl  0  0  0  0  0  0  0  0  0  0  0  0
   27.2636  -14.4623    0.0000 N   0  0  0  0  0  0  0  0  0  0  0  0
   27.1349  -16.3164    0.0000 O   0  0  0  0  0  0  0  0  0  0  0  0
   24.9357  -14.2516    0.0000 O   0  0  0  0  0  0  0  0  0  0  0  0
  1  2  2  0
  1  3  1  0
  2  4  1  0
  3  5  1  0
  3  6  2  0
  4  7  1  0
  4  8  2  0
  9 10  2  0
  9 11  1  0
  9 12  1  0
 10 13  1  0
 11 14  2  0
 12 15  1  0
 13 16  2  0
 15 17  1  0
 16 18  1  0
 17 19  1  0
 17 20  1  0
 18 21  1  0
 19 22  1  0
 21 23  1  0
 22 24  1  0
 23 25  1  0
 24 26  1  0
 24 27  1  0
 25 28  1  0
 28 29  1  0
 29 30  1  0
 29 31  1  0
 14 16  1  0
 32 33  2  0
 32 45  1  0
 32 46  1  0
 33 34  1  0
 45 44  2  0
 46 47  1  0
 34 35  2  0
 47 48  1  0
 35 36  1  0
 48 49  1  0
 48 54  1  0
 36 37  1  0
 49 50  1  0
 37 38  1  0
 50 51  1  0
 38 39  1  0
 51 52  1  0
 51 53  1  0
 39 40  1  0
 40 41  1  0
 41 42  1  0
 41 43  1  0
 44 35  1  0
 55 56  1  0
 55 57  2  0
 55 58  1  0
 56 59  2  0
 56 60  1  0
 57 61  1  0
 58 62  1  0
 58 63  2  0
 58 64  2  0
 59 65  1  0
 60 66  1  0
 61 67  1  0
 65 68  1  0
 67 69  1  0
 67 70  2  0
 67 71  2  0
 61 65  2  0
 62 66  1  0
M  STY  1   1 MUL
M  SLB  1   1   1
M  SCN  1   1 HT 
M  SAL   1 15   9  10  11  12  13  14  15  16  17  18  19  20  21  22  23
M  SAL   1 15  24  25  26  27  28  29  30  31  32  33  34  35  36  37  38
M  SAL   1 15  39  40  41  42  43  44  45  46  47  48  49  50  51  52  53
M  SAL   1  1  54
M  SPA   1 15   9  10  13  16  18  21  23  25  28  29  30  31  14  11  12
M  SPA   1  8  15  17  19  22  24  26  27  20
M  SDI   1  4    2.5900  -14.3500    2.5900   -3.3600
M  SDI   1  4   19.8800   -3.3600   19.8800  -14.3500
M  SMT   1 2
M  END
