 
     RDKit          2D

 96100  0  0  1  0  0  0  0  0999 V2000
   10.2582  -15.1697    0.0000 C   0  0  0  0  0  0  0  0  0  0  0  0
   10.2582  -16.5677    0.0000 C   0  0  0  0  0  0  0  0  0  0  0  0
   11.4466  -17.2668    0.0000 C   0  0  0  0  0  0  0  0  0  0  0  0
   12.7048  -16.5677    0.0000 C   0  0  0  0  0  0  0  0  0  0  0  0
   12.7048  -15.1697    0.0000 C   0  0  0  0  0  0  0  0  0  0  0  0
   11.4466  -14.4707    0.0000 C   0  0  0  0  0  0  0  0  0  0  0  0
   13.8932  -14.4707    0.0000 C   0  0  0  0  0  0  0  0  0  0  0  0
   15.1515  -15.1697    0.0000 C   0  0  0  0  0  0  0  0  0  0  0  0
   16.3398  -14.4707    0.0000 C   0  0  0  0  0  0  0  0  0  0  0  0
   17.5282  -15.1697    0.0000 C   0  0  0  0  0  0  0  0  0  0  0  0
   18.7864  -14.4707    0.0000 P   0  0  0  0  0  0  0  0  0  0  0  0
   19.9748  -15.1697    0.0000 C   0  0  0  0  0  0  0  0  0  0  0  0
   21.1631  -14.4707    0.0000 C   0  0  0  0  0  0  0  0  0  0  0  0
   22.4214  -15.1697    0.0000 N   0  0  0  0  0  0  0  0  0  0  0  0
   18.7864  -13.0028    0.0000 O   0  0  0  0  0  0  0  0  0  0  0  0
   21.1631  -13.0727    0.0000 O   0  0  0  0  0  0  0  0  0  0  0  0
   22.8408  -16.4978    0.0000 C   0  0  0  0  0  0  0  0  0  0  0  0
   24.2389  -16.4978    0.0000 C   0  0  0  0  0  0  0  0  0  0  0  0
   24.6583  -15.1697    0.0000 C   0  0  0  0  0  0  0  0  0  0  0  0
   23.5398  -14.3309    0.0000 C   0  0  0  0  0  0  0  0  0  0  0  0
   24.9379  -17.7561    0.0000 C   0  0  0  0  0  0  0  0  0  0  0  0
   24.2389  -18.9444    0.0000 C   0  0  0  0  0  0  0  0  0  0  0  0
   24.9379  -20.1328    0.0000 C   0  0  0  0  0  0  0  0  0  0  0  0
   26.3360  -20.1328    0.0000 C   0  0  0  0  0  0  0  0  0  0  0  0
   27.0350  -18.9444    0.0000 C   0  0  0  0  0  0  0  0  0  0  0  0
   26.3360  -17.7561    0.0000 C   0  0  0  0  0  0  0  0  0  0  0  0
   23.5398  -12.9329    0.0000 C   0  0  0  0  0  0  0  0  0  0  0  0
   24.7282  -12.2338    0.0000 O   0  0  0  0  0  0  0  0  0  0  0  0
   22.3515  -12.2338    0.0000 O   0  0  0  0  0  0  0  0  0  0  0  0
   18.7864  -16.0085    0.0000 O   0  0  0  0  0  0  0  0  0  0  0  0
   18.7864  -17.4066    0.0000 C   0  0  0  0  0  0  0  0  0  0  0  0
   17.5981  -18.1056    0.0000 O   0  0  0  0  0  0  0  0  0  0  0  0
   19.9748  -18.1056    0.0000 C   0  0  0  0  0  0  0  0  0  0  0  0
   21.1631  -17.4066    0.0000 C   0  0  0  0  0  0  0  0  0  0  0  0
   19.9748  -19.5037    0.0000 C   0  0  0  0  0  0  0  0  0  0  0  0
   16.4097  -17.4066    0.0000 C   0  0  0  0  0  0  0  0  0  0  0  0
   15.2214  -18.1056    0.0000 C   0  0  0  0  0  0  0  0  0  0  0  0
   16.4097  -16.0085    0.0000 O   0  0  0  0  0  0  0  0  0  0  0  0
   14.0330  -17.4066    0.0000 C   0  0  0  0  0  0  0  0  0  0  0  0
   26.2661  -12.2338    0.0000 Na  0  0  0  0  0 15  0  0  0  0  0  0
   18.0016  -17.3724    0.0000 C   0  0  0  0  0  0  0  0  0  0  0  0
   18.0016  -18.7734    0.0000 C   0  0  0  0  0  0  0  0  0  0  0  0
   19.1925  -19.4740    0.0000 C   0  0  0  0  0  0  0  0  0  0  0  0
   20.3833  -18.7734    0.0000 C   0  0  0  0  0  0  0  0  0  0  0  0
   20.3833  -17.3724    0.0000 C   0  0  0  0  0  0  0  0  0  0  0  0
   19.1925  -16.6719    0.0000 C   0  0  0  0  0  0  0  0  0  0  0  0
   21.5742  -16.6719    0.0000 C   0  0  0  0  0  0  0  0  0  0  0  0
   22.8351  -17.3724    0.0000 C   0  0  0  0  0  0  0  0  0  0  0  0
   24.0260  -16.6719    0.0000 C   0  0  0  0  0  0  0  0  0  0  0  0
   25.2169  -17.3724    0.0000 C   0  0  0  0  0  0  0  0  0  0  0  0
   26.4778  -16.6719    0.0000 P   0  0  0  0  0  0  0  0  0  0  0  0
   27.6687  -17.3724    0.0000 C   0  0  0  0  0  0  0  0  0  0  0  0
   28.8595  -16.6719    0.0000 C   0  0  0  0  0  0  0  0  0  0  0  0
   30.1205  -17.3724    0.0000 N   0  0  0  0  0  0  0  0  0  0  0  0
   26.4778  -15.2008    0.0000 O   0  0  0  0  0  0  0  0  0  0  0  0
   28.8595  -15.2709    0.0000 O   0  0  0  0  0  0  0  0  0  0  0  0
   30.5408  -18.7034    0.0000 C   0  0  0  0  0  0  0  0  0  0  0  0
   31.9418  -18.7034    0.0000 C   0  0  0  0  0  0  0  0  0  0  0  0
   32.3621  -17.3724    0.0000 C   0  0  0  0  0  0  0  0  0  0  0  0
   31.2413  -16.5318    0.0000 C   0  0  0  0  0  0  0  0  0  0  0  0
   32.6423  -19.9643    0.0000 C   0  0  0  0  0  0  0  0  0  0  0  0
   31.9418  -21.1552    0.0000 C   0  0  0  0  0  0  0  0  0  0  0  0
   32.6423  -22.3461    0.0000 C   0  0  0  0  0  0  0  0  0  0  0  0
   34.0433  -22.3461    0.0000 C   0  0  0  0  0  0  0  0  0  0  0  0
   34.7439  -21.1552    0.0000 C   0  0  0  0  0  0  0  0  0  0  0  0
   34.0433  -19.9643    0.0000 C   0  0  0  0  0  0  0  0  0  0  0  0
   31.2413  -15.1308    0.0000 C   0  0  0  0  0  0  0  0  0  0  0  0
   32.4322  -14.4303    0.0000 O   0  0  0  0  0  0  0  0  0  0  0  0
   30.0504  -14.4303    0.0000 O   0  0  0  0  0  0  0  0  0  0  0  0
   26.4778  -18.2130    0.0000 O   0  0  0  0  0  0  0  0  0  0  0  0
   26.4778  -19.6141    0.0000 C   0  0  0  0  0  0  0  0  0  0  0  0
   25.2869  -20.3146    0.0000 O   0  0  0  0  0  0  0  0  0  0  0  0
   27.6687  -20.3146    0.0000 C   0  0  0  0  0  0  0  0  0  0  0  0
   28.8595  -19.6141    0.0000 C   0  0  0  0  0  0  0  0  0  0  0  0
   27.6687  -21.7156    0.0000 C   0  0  0  0  0  0  0  0  0  0  0  0
   24.0961  -19.6141    0.0000 C   0  0  0  0  0  0  0  0  0  0  0  0
   22.9052  -20.3146    0.0000 C   0  0  0  0  0  0  0  0  0  0  0  0
   24.0961  -18.2130    0.0000 O   0  0  0  0  0  0  0  0  0  0  0  0
   21.7143  -19.6141    0.0000 C   0  0  0  0  0  0  0  0  0  0  0  0
   22.4791  -15.9596    0.0000 C   0  0  0  0  0  0  0  0  0  0  0  0
   22.4731  -17.3165    0.0000 C   0  0  0  0  0  0  0  0  0  0  0  0
   23.6605  -15.2870    0.0000 C   0  0  0  0  0  0  0  0  0  0  0  0
   21.3034  -15.2811    0.0000 S   0  0  0  0  0  0  0  0  0  0  0  0
   23.6430  -18.0010    0.0000 C   0  0  0  0  0  0  0  0  0  0  0  0
   21.3034  -17.9950    0.0000 N   0  0  0  0  0  0  0  0  0  0  0  0
   24.8304  -15.9713    0.0000 C   0  0  0  0  0  0  0  0  0  0  0  0
   20.1278  -15.9596    0.0000 N   0  0  0  0  0  0  0  0  0  0  0  0
   19.9933  -14.4564    0.0000 O   0  0  0  0  0  0  0  0  0  0  0  0
   22.5376  -14.4564    0.0000 O   0  0  0  0  0  0  0  0  0  0  0  0
   24.8244  -17.3282    0.0000 C   0  0  0  0  0  0  0  0  0  0  0  0
   20.1278  -17.3165    0.0000 C   0  0  0  0  0  0  0  0  0  0  0  0
   26.0118  -15.2987    0.0000 S   0  0  0  0  0  0  0  0  0  0  0  0
   26.0003  -18.0127    0.0000 Cl  0  0  0  0  0  0  0  0  0  0  0  0
   27.2636  -14.4623    0.0000 N   0  0  0  0  0  0  0  0  0  0  0  0
   27.1349  -16.3164    0.0000 O   0  0  0  0  0  0  0  0  0  0  0  0
   24.9357  -14.2516    0.0000 O   0  0  0  0  0  0  0  0  0  0  0  0
  1  2  2  0
  2  3  1  0
  3  4  2  0
  4  5  1  0
  5  6  2  0
  1  6  1  0
  5  7  1  0
  7  8  1  0
  8  9  1  0
  9 10  1  0
 10 11  1  0
 11 12  1  0
 12 13  1  0
 13 14  1  0
 11 15  2  0
 13 16  2  0
 14 17  1  0
 17 18  1  0
 18 19  1  0
 19 20  1  0
 14 20  1  0
 21 22  1  0
 22 23  1  0
 23 24  1  0
 24 25  1  0
 25 26  1  0
 21 26  1  0
 18 21  1  1
 20 27  1  6
 27 28  1  0
 27 29  2  0
 11 30  1  0
 31 30  1  1
 31 32  1  0
 31 33  1  0
 33 34  1  0
 33 35  1  0
 32 36  1  0
 36 37  1  0
 36 38  2  0
 37 39  1  0
 41 42  2  0
 42 43  1  0
 43 44  2  0
 44 45  1  0
 45 46  2  0
 41 46  1  0
 45 47  1  0
 47 48  1  0
 48 49  1  0
 49 50  1  0
 50 51  1  0
 51 52  1  0
 52 53  1  0
 53 54  1  0
 51 55  2  0
 53 56  2  0
 54 57  1  0
 57 58  1  0
 58 59  1  0
 59 60  1  0
 54 60  1  0
 61 62  1  0
 62 63  1  0
 63 64  1  0
 64 65  1  0
 65 66  1  0
 61 66  1  0
 58 61  1  1
 60 67  1  6
 67 68  1  0
 67 69  2  0
 51 70  1  0
 71 70  1  1
 71 72  1  0
 71 73  1  0
 73 74  1  0
 73 75  1  0
 72 76  1  0
 76 77  1  0
 76 78  2  0
 77 79  1  0
 80 81  1  0
 80 82  2  0
 80 83  1  0
 81 84  2  0
 81 85  1  0
 82 86  1  0
 83 87  1  0
 83 88  2  0
 83 89  2  0
 84 90  1  0
 85 91  1  0
 86 92  1  0
 90 93  1  0
 92 94  1  0
 92 95  2  0
 92 96  2  0
 86 90  2  0
 87 91  1  0
M  CHG  2  28  -1  40   1
M  END
