 
     RDKit          2D

227228  0  1  1  0  0  0  0  0999 V2000
   33.7005  -19.8340    0.0000 C   0  0  0  0  0  0  0  0  0  0  0  0
   34.9177  -19.1312    0.0000 C   0  0  0  0  0  0  0  0  0  0  0  0
   36.1351  -19.8340    0.0000 C   0  0  0  0  0  0  0  0  0  0  0  0
   37.3523  -19.1312    0.0000 C   0  0  0  0  0  0  0  0  0  0  0  0
   38.5716  -19.8352    0.0000 O   0  0  0  0  0  0  0  0  0  0  0  0
   37.3523  -17.7256    0.0000 O   0  0  0  0  0  0  0  0  0  0  0  0
   32.4832  -19.1312    0.0000 O   0  0  0  0  0  0  0  0  0  0  0  0
   33.7005  -21.2396    0.0000 O   0  0  0  0  0  0  0  0  0  0  0  0
   34.3000  -11.9000    0.0000 C   0  0  0  0  0  0  0  0  0  0  0  0
   34.3000  -13.3000    0.0000 C   0  0  0  0  0  0  0  0  0  0  0  0
   35.4900  -14.0000    0.0000 C   0  0  0  0  0  0  0  0  0  0  0  0
   36.7500  -13.3000    0.0000 C   0  0  0  0  0  0  0  0  0  0  0  0
   36.7500  -11.9000    0.0000 C   0  0  0  0  0  0  0  0  0  0  0  0
   35.4900  -11.2000    0.0000 C   0  0  0  0  0  0  0  0  0  0  0  0
   37.9400  -11.2000    0.0000 O   0  0  0  0  0  0  0  0  0  0  0  0
   39.0600  -11.9000    0.0000 C   0  0  0  0  0  0  0  0  0  0  0  0
   33.1800  -14.0000    0.0000 C   0  0  0  0  0  0  0  0  0  0  0  0
   37.9400  -14.0000    0.0000 O   0  0  0  0  0  0  0  0  0  0  0  0
   39.1300  -13.3000    0.0000 C   0  0  0  0  0  0  0  0  0  0  0  0
   40.3900  -14.0000    0.0000 C   0  0  0  0  0  0  0  0  0  0  0  0
   41.5800  -13.3000    0.0000 C   0  0  0  0  0  0  0  0  0  0  0  0
   42.7700  -14.0000    0.0000 O   0  0  0  0  0  0  0  0  0  0  0  0
   43.9600  -13.3000    0.0000 C   0  0  0  0  0  0  0  0  0  0  0  0
   31.9900  -13.3000    0.0000 C   0  0  0  0  0  0  0  0  0  0  0  0
   30.8000  -14.0000    0.0000 C   0  0  0  0  0  0  0  0  0  0  0  0
   29.6100  -13.3000    0.0000 C   0  0  0  0  0  0  0  0  0  0  0  0
   28.3500  -14.0000    0.0000 C   0  0  0  0  0  0  0  0  0  0  0  0
   27.1600  -13.3000    0.0000 C   0  0  0  0  0  0  0  0  0  0  0  0
   25.9700  -14.0000    0.0000 C   0  0  0  0  0  0  0  0  0  0  0  0
   24.7800  -13.3000    0.0000 C   0  0  0  0  0  0  0  0  0  0  0  0
   23.5900  -14.0000    0.0000 N   0  0  0  0  0  0  0  0  0  0  0  0
   22.4000  -13.3000    0.0000 C   0  0  0  0  0  0  0  0  0  0  0  0
   21.2100  -14.0000    0.0000 C   0  0  0  0  0  0  0  0  0  0  0  0
   20.0200  -13.3000    0.0000 C   0  0  0  0  0  0  0  0  0  0  0  0
   18.8300  -14.0000    0.0000 N   0  0  0  0  0  0  0  0  0  0  0  0
   24.7800  -11.9000    0.0000 O   0  0  0  0  0  0  0  0  0  0  0  0
   20.0200  -11.9000    0.0000 O   0  0  0  0  0  0  0  0  0  0  0  0
   25.9700  -15.1900    0.0000 C   0  0  0  0  0  0  0  0  0  0  0  0
   24.7800  -15.7500    0.0000 C   0  0  0  0  0  0  0  0  0  0  0  0
   27.1600  -15.7500    0.0000 C   0  0  0  0  0  0  0  0  0  0  0  0
   28.3500  -15.4000    0.0000 O   0  0  0  0  0  0  0  0  0  0  0  0
   29.6100  -11.9000    0.0000 N   0  0  0  0  0  0  0  0  0  0  0  0
   31.9900  -11.3400    0.0000 C   0  0  0  0  0  0  0  0  0  0  0  0
   33.1800  -10.6400    0.0000 C   0  0  0  0  0  0  0  0  0  0  0  0
   30.8000  -10.7100    0.0000 C   0  0  0  0  0  0  0  0  0  0  0  0
   20.2300  -14.9800    0.0000 C   0  0  0  0  0  0  0  0  0  0  0  0
   22.1900  -14.9800    0.0000 C   0  0  0  0  0  0  0  0  0  0  0  0
   34.3000  -11.9000    0.0000 C   0  0  0  0  0  0  0  0  0  0  0  0
   34.3000  -13.3000    0.0000 C   0  0  0  0  0  0  0  0  0  0  0  0
   35.4900  -14.0000    0.0000 C   0  0  0  0  0  0  0  0  0  0  0  0
   36.7500  -13.3000    0.0000 C   0  0  0  0  0  0  0  0  0  0  0  0
   36.7500  -11.9000    0.0000 C   0  0  0  0  0  0  0  0  0  0  0  0
   35.4900  -11.2000    0.0000 C   0  0  0  0  0  0  0  0  0  0  0  0
   37.9400  -11.2000    0.0000 O   0  0  0  0  0  0  0  0  0  0  0  0
   39.0600  -11.9000    0.0000 C   0  0  0  0  0  0  0  0  0  0  0  0
   37.9400  -14.0000    0.0000 O   0  0  0  0  0  0  0  0  0  0  0  0
   39.1300  -13.3000    0.0000 C   0  0  0  0  0  0  0  0  0  0  0  0
   40.3900  -14.0000    0.0000 C   0  0  0  0  0  0  0  0  0  0  0  0
   41.5800  -13.3000    0.0000 C   0  0  0  0  0  0  0  0  0  0  0  0
   42.7700  -14.0000    0.0000 O   0  0  0  0  0  0  0  0  0  0  0  0
   43.9600  -13.3000    0.0000 C   0  0  0  0  0  0  0  0  0  0  0  0
   33.1800  -14.0000    0.0000 C   0  0  0  0  0  0  0  0  0  0  0  0
   31.9900  -13.3000    0.0000 C   0  0  0  0  0  0  0  0  0  0  0  0
   30.8000  -14.0000    0.0000 C   0  0  0  0  0  0  0  0  0  0  0  0
   29.6100  -13.3000    0.0000 C   0  0  0  0  0  0  0  0  0  0  0  0
   28.3500  -14.0000    0.0000 C   0  0  0  0  0  0  0  0  0  0  0  0
   27.1600  -13.3000    0.0000 C   0  0  0  0  0  0  0  0  0  0  0  0
   25.9700  -14.0000    0.0000 C   0  0  0  0  0  0  0  0  0  0  0  0
   24.7800  -13.3000    0.0000 C   0  0  0  0  0  0  0  0  0  0  0  0
   23.5900  -14.0000    0.0000 N   0  0  0  0  0  0  0  0  0  0  0  0
   22.4000  -13.3000    0.0000 C   0  0  0  0  0  0  0  0  0  0  0  0
   21.2100  -14.0000    0.0000 C   0  0  0  0  0  0  0  0  0  0  0  0
   20.0200  -13.3000    0.0000 C   0  0  0  0  0  0  0  0  0  0  0  0
   18.8300  -14.0000    0.0000 N   0  0  0  0  0  0  0  0  0  0  0  0
   20.0200  -11.9000    0.0000 O   0  0  0  0  0  0  0  0  0  0  0  0
   20.2300  -14.9800    0.0000 C   0  0  0  0  0  0  0  0  0  0  0  0
   22.1900  -14.9800    0.0000 C   0  0  0  0  0  0  0  0  0  0  0  0
   24.7800  -11.9000    0.0000 O   0  0  0  0  0  0  0  0  0  0  0  0
   25.9700  -15.1900    0.0000 C   0  0  0  0  0  0  0  0  0  0  0  0
   24.7800  -15.7500    0.0000 C   0  0  0  0  0  0  0  0  0  0  0  0
   27.1600  -15.7500    0.0000 C   0  0  0  0  0  0  0  0  0  0  0  0
   28.3500  -15.4000    0.0000 O   0  0  0  0  0  0  0  0  0  0  0  0
   29.6100  -11.9000    0.0000 N   0  0  0  0  0  0  0  0  0  0  0  0
   31.9900  -11.3400    0.0000 C   0  0  0  0  0  0  0  0  0  0  0  0
   33.1800  -10.6400    0.0000 C   0  0  0  0  0  0  0  0  0  0  0  0
   30.8000  -10.7100    0.0000 C   0  0  0  0  0  0  0  0  0  0  0  0
   25.2686  -13.2653    0.0000 C   0  0  0  0  0  0  0  0  0  0  0  0
   25.2686  -14.6393    0.0000 C   0  0  0  0  0  0  0  0  0  0  0  0
   26.4366  -15.3263    0.0000 C   0  0  0  0  0  0  0  0  0  0  0  0
   27.6731  -14.6393    0.0000 C   0  0  0  0  0  0  0  0  0  0  0  0
   27.6731  -13.2653    0.0000 C   0  0  0  0  0  0  0  0  0  0  0  0
   26.4366  -12.5784    0.0000 C   0  0  0  0  0  0  0  0  0  0  0  0
   28.8410  -12.5784    0.0000 O   0  0  0  0  0  0  0  0  0  0  0  0
   30.0089  -13.2653    0.0000 C   0  0  0  0  0  0  0  0  0  0  0  0
   24.1008  -15.3263    0.0000 C   0  0  0  0  0  0  0  0  0  0  0  0
   28.8573  -15.3361    0.0000 O   0  0  0  0  0  0  0  0  0  0  0  0
   30.0445  -14.6636    0.0000 C   0  0  0  0  0  0  0  0  0  0  0  0
   31.2674  -15.3263    0.0000 C   0  0  0  0  0  0  0  0  0  0  0  0
   32.4573  -14.6393    0.0000 C   0  0  0  0  0  0  0  0  0  0  0  0
   33.6472  -15.3263    0.0000 O   0  0  0  0  0  0  0  0  0  0  0  0
   34.8371  -14.6393    0.0000 C   0  0  0  0  0  0  0  0  0  0  0  0
   22.9109  -14.6393    0.0000 C   0  0  0  0  0  0  0  0  0  0  0  0
   21.7210  -15.3263    0.0000 C   0  0  0  0  0  0  0  0  0  0  0  0
   20.5311  -14.6393    0.0000 C   0  0  0  0  0  0  0  0  0  0  0  0
   19.3413  -15.3263    0.0000 C   0  0  0  0  0  0  0  0  0  0  0  0
   18.1514  -14.6393    0.0000 C   0  0  0  0  0  0  0  0  0  0  0  0
   16.9615  -15.3263    0.0000 C   0  0  0  0  0  0  0  0  0  0  0  0
   15.7716  -14.6393    0.0000 C   0  0  0  0  0  0  0  0  0  0  0  0
   14.5818  -15.3263    0.0000 N   0  0  0  0  0  0  0  0  0  0  0  0
   13.3919  -14.6393    0.0000 C   0  0  0  0  0  0  0  0  0  0  0  0
   12.2019  -15.3263    0.0000 C   0  0  0  0  0  0  0  0  0  0  0  0
   11.0121  -14.6393    0.0000 C   0  0  0  0  0  0  0  0  0  0  0  0
    9.8223  -15.3263    0.0000 N   0  0  0  0  0  0  0  0  0  0  0  0
   15.7716  -13.2654    0.0000 O   0  0  0  0  0  0  0  0  0  0  0  0
   11.0121  -16.0132    0.0000 C   0  0  0  0  0  0  0  0  0  0  0  0
   13.3919  -16.0132    0.0000 C   0  0  0  0  0  0  0  0  0  0  0  0
   11.0121  -13.2657    0.0000 O   0  0  0  0  0  0  0  0  0  0  0  0
   16.9615  -17.1124    0.0000 C   0  0  0  0  0  0  0  0  0  0  0  0
   15.7676  -17.8016    0.0000 C   0  0  0  0  0  0  0  0  0  0  0  0
   18.1475  -17.7971    0.0000 C   0  0  0  0  0  0  0  0  0  0  0  0
   19.3416  -16.7107    0.0000 O   0  0  0  0  0  0  0  0  0  0  0  0
   20.5306  -13.2152    0.0000 N   0  0  0  0  0  0  0  0  0  0  0  0
   22.9109  -12.7159    0.0000 C   0  0  0  0  0  0  0  0  0  0  0  0
   24.1173  -12.0193    0.0000 C   0  0  0  0  0  0  0  0  0  0  0  0
   21.7375  -12.0384    0.0000 C   0  0  0  0  0  0  0  0  0  0  0  0
   29.5695  -18.6304    0.0000 C   0  0  0  0  0  0  0  0  0  0  0  0
   28.3142  -19.3278    0.0000 C   0  0  0  0  0  0  0  0  0  0  0  0
   30.7550  -19.3278    0.0000 C   0  0  0  0  0  0  0  0  0  0  0  0
   29.5698  -17.2357    0.0000 S   0  0  0  0  0  0  0  0  0  0  0  0
   28.3142  -20.6528    0.0000 C   0  0  0  0  0  0  0  0  0  0  0  0
   30.7550  -20.6528    0.0000 C   0  0  0  0  0  0  0  0  0  0  0  0
   29.5698  -15.8409    0.0000 O   0  0  0  0  0  0  0  0  0  0  0  0
   28.1750  -17.2357    0.0000 O   0  0  0  0  0  0  0  0  0  0  0  0
   30.9645  -17.2357    0.0000 O   0  0  0  0  0  0  0  0  0  0  0  0
   29.5695  -21.3502    0.0000 C   0  0  0  0  0  0  0  0  0  0  0  0
   19.3368  -16.0762    0.0000 C   0  0  0  0  0  0  0  0  0  0  0  0
   20.5198  -15.3803    0.0000 C   0  0  0  0  0  0  0  0  0  0  0  0
   18.1539  -15.3803    0.0000 C   0  0  0  0  0  0  0  0  0  0  0  0
   19.3368  -18.4421    0.0000 C   0  0  0  0  0  0  0  0  0  0  0  0
   20.5198  -13.9886    0.0000 C   0  0  0  0  0  0  0  0  0  0  0  0
   21.7028  -16.0762    0.0000 C   0  0  0  0  0  0  0  0  0  0  0  0
   18.1539  -13.9886    0.0000 C   0  0  0  0  0  0  0  0  0  0  0  0
   16.9709  -16.0066    0.0000 C   0  0  0  0  0  0  0  0  0  0  0  0
   20.5198  -19.1380    0.0000 C   0  0  0  0  0  0  0  0  0  0  0  0
   18.1539  -19.1380    0.0000 C   0  0  0  0  0  0  0  0  0  0  0  0
   19.3368  -13.2927    0.0000 N   0  0  0  0  0  0  0  0  0  0  0  0
   21.7028  -13.2927    0.0000 C   0  0  0  0  0  0  0  0  0  0  0  0
   22.8858  -15.3803    0.0000 O   0  0  0  0  0  0  0  0  0  0  0  0
   21.7028  -17.3983    0.0000 O   0  0  0  0  0  0  0  0  0  0  0  0
   16.9709  -13.2927    0.0000 C   0  0  0  0  0  0  0  0  0  0  0  0
   15.7879  -15.3803    0.0000 O   0  0  0  0  0  0  0  0  0  0  0  0
   16.9709  -17.3983    0.0000 O   0  0  0  0  0  0  0  0  0  0  0  0
   20.5198  -20.4601    0.0000 C   0  0  0  0  0  0  0  0  0  0  0  0
   21.7028  -18.4421    0.0000 Cl  0  0  0  0  0  0  0  0  0  0  0  0
   18.1539  -20.4601    0.0000 C   0  0  0  0  0  0  0  0  0  0  0  0
   22.8858  -13.9886    0.0000 O   0  0  0  0  0  0  0  0  0  0  0  0
   24.0687  -16.0762    0.0000 C   0  0  0  0  0  0  0  0  0  0  0  0
   14.6049  -16.0066    0.0000 C   0  0  0  0  0  0  0  0  0  0  0  0
   19.3368  -21.1560    0.0000 C   0  0  0  0  0  0  0  0  0  0  0  0
   24.0687  -13.2927    0.0000 C   0  0  0  0  0  0  0  0  0  0  0  0
   25.2517  -15.3803    0.0000 C   0  0  0  0  0  0  0  0  0  0  0  0
   25.2517  -13.9886    0.0000 C   0  0  0  0  0  0  0  0  0  0  0  0
   26.4347  -13.2927    0.0000 N   0  0  0  0  0  0  0  0  0  0  0  0
   22.9600  -16.8000    0.0000 C   0  0  0  0  0  0  0  0  0  0  0  0
   24.1500  -16.1000    0.0000 C   0  0  0  0  0  0  0  0  0  0  0  0
   21.7700  -16.1000    0.0000 C   0  0  0  0  0  0  0  0  0  0  0  0
   22.9600  -19.1800    0.0000 C   0  0  0  0  0  0  0  0  0  0  0  0
   24.1500  -14.7000    0.0000 C   0  0  0  0  0  0  0  0  0  0  0  0
   25.3400  -16.8000    0.0000 C   0  0  0  0  0  0  0  0  0  0  0  0
   21.7700  -14.7000    0.0000 C   0  0  0  0  0  0  0  0  0  0  0  0
   20.5800  -16.7300    0.0000 C   0  0  0  0  0  0  0  0  0  0  0  0
   24.1500  -19.8800    0.0000 C   0  0  0  0  0  0  0  0  0  0  0  0
   21.7700  -19.8800    0.0000 C   0  0  0  0  0  0  0  0  0  0  0  0
   22.9600  -14.0000    0.0000 N   0  0  0  0  0  0  0  0  0  0  0  0
   25.3400  -14.0000    0.0000 C   0  0  0  0  0  0  0  0  0  0  0  0
   26.5300  -16.1000    0.0000 O   0  0  0  0  0  0  0  0  0  0  0  0
   25.3400  -18.1300    0.0000 O   0  0  0  0  0  0  0  0  0  0  0  0
   20.5800  -14.0000    0.0000 C   0  0  0  0  0  0  0  0  0  0  0  0
   19.3900  -16.1000    0.0000 O   0  0  0  0  0  0  0  0  0  0  0  0
   20.5800  -18.1300    0.0000 O   0  0  0  0  0  0  0  0  0  0  0  0
   24.1500  -21.2100    0.0000 C   0  0  0  0  0  0  0  0  0  0  0  0
   25.3400  -19.1800    0.0000 Cl  0  0  0  0  0  0  0  0  0  0  0  0
   21.7700  -21.2100    0.0000 C   0  0  0  0  0  0  0  0  0  0  0  0
   26.5300  -14.7000    0.0000 O   0  0  0  0  0  0  0  0  0  0  0  0
   27.7200  -16.8000    0.0000 C   0  0  0  0  0  0  0  0  0  0  0  0
   18.2000  -16.7300    0.0000 C   0  0  0  0  0  0  0  0  0  0  0  0
   22.9600  -21.9100    0.0000 C   0  0  0  0  0  0  0  0  0  0  0  0
   27.7200  -14.0000    0.0000 C   0  0  0  0  0  0  0  0  0  0  0  0
   28.9100  -16.1000    0.0000 C   0  0  0  0  0  0  0  0  0  0  0  0
   28.9100  -14.7000    0.0000 C   0  0  0  0  0  0  0  0  0  0  0  0
   30.1000  -14.0000    0.0000 N   0  0  0  0  0  0  0  0  0  0  0  0
   28.6629  -16.1156    0.0000 C   0  0  0  0  0  0  0  0  0  0  0  0
   29.3546  -17.3137    0.0000 O   0  0  0  0  0  0  0  0  0  0  0  0
   31.2223  -17.3137    0.0000 O   0  0  0  0  0  0  0  0  0  0  0  0
   31.9140  -16.1156    0.0000 C   0  0  0  0  0  0  0  0  0  0  0  0
   31.2223  -14.9175    0.0000 C   0  0  0  0  0  0  0  0  0  0  0  0
   29.3546  -14.9175    0.0000 C   0  0  0  0  0  0  0  0  0  0  0  0
   33.2975  -16.1156    0.0000 O   0  0  0  0  0  0  0  0  0  0  0  0
   27.2794  -16.1156    0.0000 O   0  0  0  0  0  0  0  0  0  0  0  0
   21.0168  -13.2762    0.0000 C   0  0  0  0  0  0  0  0  0  0  0  0
   22.1998  -12.5803    0.0000 C   0  0  0  0  0  0  0  0  0  0  0  0
   19.8339  -12.5803    0.0000 C   0  0  0  0  0  0  0  0  0  0  0  0
   21.0168  -15.6421    0.0000 C   0  0  0  0  0  0  0  0  0  0  0  0
   22.1998  -11.1886    0.0000 C   0  0  0  0  0  0  0  0  0  0  0  0
   23.3828  -13.2762    0.0000 C   0  0  0  0  0  0  0  0  0  0  0  0
   19.8339  -11.1886    0.0000 C   0  0  0  0  0  0  0  0  0  0  0  0
   18.6509  -13.2066    0.0000 C   0  0  0  0  0  0  0  0  0  0  0  0
   22.1998  -16.3380    0.0000 C   0  0  0  0  0  0  0  0  0  0  0  0
   19.8339  -16.3380    0.0000 C   0  0  0  0  0  0  0  0  0  0  0  0
   21.0168  -10.4927    0.0000 N   0  0  0  0  0  0  0  0  0  0  0  0
   23.3828  -10.4927    0.0000 C   0  0  0  0  0  0  0  0  0  0  0  0
   24.5658  -12.5803    0.0000 O   0  0  0  0  0  0  0  0  0  0  0  0
   23.3828  -14.5983    0.0000 O   0  0  0  0  0  0  0  0  0  0  0  0
   18.6509  -10.4927    0.0000 C   0  0  0  0  0  0  0  0  0  0  0  0
   17.4679  -12.5803    0.0000 O   0  0  0  0  0  0  0  0  0  0  0  0
   18.6509  -14.5983    0.0000 O   0  0  0  0  0  0  0  0  0  0  0  0
   22.1998  -17.6601    0.0000 C   0  0  0  0  0  0  0  0  0  0  0  0
   23.3828  -15.6421    0.0000 Cl  0  0  0  0  0  0  0  0  0  0  0  0
   19.8339  -17.6601    0.0000 C   0  0  0  0  0  0  0  0  0  0  0  0
   24.5658  -11.1886    0.0000 O   0  0  0  0  0  0  0  0  0  0  0  0
   25.7487  -13.2762    0.0000 C   0  0  0  0  0  0  0  0  0  0  0  0
   16.2849  -13.2066    0.0000 C   0  0  0  0  0  0  0  0  0  0  0  0
   21.0168  -18.3560    0.0000 C   0  0  0  0  0  0  0  0  0  0  0  0
   25.7487  -10.4927    0.0000 C   0  0  0  0  0  0  0  0  0  0  0  0
   26.9317  -12.5803    0.0000 C   0  0  0  0  0  0  0  0  0  0  0  0
   26.9317  -11.1886    0.0000 C   0  0  0  0  0  0  0  0  0  0  0  0
   28.1147  -10.4927    0.0000 N   0  0  0  0  0  0  0  0  0  0  0  0
  1  2  1  0
  2  3  2  0
  3  4  1  0
  4  5  1  0
  4  6  2  0
  1  7  1  0
  1  8  2  0
  9 10  2  0
 10 11  1  0
 11 12  2  0
 12 13  1  0
 13 14  2  0
  9 14  1  0
 13 15  1  0
 15 16  1  0
 10 17  1  0
 12 18  1  0
 18 19  1  0
 19 20  1  0
 20 21  1  0
 21 22  1  0
 22 23  1  0
 24 17  1  1
 24 25  1  0
 25 26  1  0
 26 27  1  0
 27 28  1  0
 29 28  1  1
 29 30  1  0
 30 31  1  0
 31 32  1  0
 32 33  1  0
 33 34  1  0
 34 35  1  0
 30 36  2  0
 34 37  2  0
 38 39  1  0
 38 40  1  0
 29 38  1  0
 27 41  1  1
 26 42  1  1
 43 44  1  0
 43 45  1  0
 24 43  1  0
 33 46  1  0
 33 47  1  0
 48 49  2  0
 49 50  1  0
 50 51  2  0
 51 52  1  0
 52 53  2  0
 48 53  1  0
 52 54  1  0
 54 55  1  0
 49 62  1  0
 51 56  1  0
 56 57  1  0
 57 58  1  0
 58 59  1  0
 59 60  1  0
 60 61  1  0
 63 62  1  1
 63 64  1  0
 64 65  1  0
 65 66  1  0
 66 67  1  0
 68 67  1  1
 68 69  1  0
 69 70  1  0
 70 71  1  0
 71 72  1  0
 72 73  1  0
 73 74  1  0
 69 78  2  0
 73 75  2  0
 79 80  1  0
 79 81  1  0
 68 79  1  0
 66 82  1  1
 65 83  1  1
 84 85  1  0
 84 86  1  0
 63 84  1  0
 72 76  1  0
 72 77  1  0
 87 88  2  0
 88 89  1  0
 89 90  2  0
 90 91  1  0
 91 92  2  0
 87 92  1  0
 91 93  1  0
 93 94  1  0
 88 95  1  0
 90 96  1  0
 96 97  1  0
 97 98  1  0
 98 99  1  0
 99100  1  0
100101  1  0
102 95  1  1
102103  1  0
103104  1  0
104105  1  0
105106  1  0
107106  1  1
107108  1  0
108109  1  0
109110  1  0
110111  1  0
111112  1  0
112113  1  0
108114  2  0
111115  1  0
111116  1  0
112117  2  0
118119  1  0
118120  1  0
107118  1  0
105121  1  1
104122  1  1
123124  1  0
123125  1  0
102123  1  0
126127  2  0
126128  1  0
126129  1  0
127130  1  0
128131  2  0
129132  1  0
129133  2  0
129134  2  0
130135  2  0
131135  1  0
136137  1  0
136138  1  0
136139  1  0
137140  2  0
137141  1  0
138142  2  0
138143  1  0
139144  2  0
139145  1  0
140146  1  0
140147  1  0
141148  1  0
141149  2  0
142150  1  0
143151  1  0
143152  2  0
144153  1  0
144154  1  0
145155  2  0
147156  1  0
148157  1  0
151158  1  0
153159  2  0
156160  1  0
157161  1  0
160162  1  0
162163  1  0
142146  1  0
155159  1  0
164165  1  0
164166  1  0
164167  1  0
165168  2  0
165169  1  0
166170  2  0
166171  1  0
167172  2  0
167173  1  0
168174  1  0
168175  1  0
169176  1  0
169177  2  0
170178  1  0
171179  1  0
171180  2  0
172181  1  0
172182  1  0
173183  2  0
175184  1  0
176185  1  0
179186  1  0
181187  2  0
184188  1  0
185189  1  0
188190  1  0
190191  1  0
170174  1  0
183187  1  0
192193  2  0
194195  1  0
195196  1  0
196197  2  0
192197  1  0
195198  2  0
192199  1  0
200201  1  0
200202  1  0
200203  1  0
201204  2  0
201205  1  0
202206  2  0
202207  1  0
203208  2  0
203209  1  0
204210  1  0
204211  1  0
205212  1  0
205213  2  0
206214  1  0
207215  1  0
207216  2  0
208217  1  0
208218  1  0
209219  2  0
211220  1  0
212221  1  0
215222  1  0
217223  2  0
220224  1  0
221225  1  0
224226  1  0
226227  1  0
206210  1  0
219223  1  0
M  STY  1   1 MUL
M  SLB  1   1   1
M  SCN  1   1 HT 
M  SAL   1 15   9  10  11  12  13  14  15  16  17  18  19  20  21  22  23
M  SAL   1 15  24  25  26  27  28  29  30  31  32  33  34  35  36  37  38
M  SAL   1 15  39  40  41  42  43  44  45  46  47  48  49  50  51  52  53
M  SAL   1 15  54  55  56  57  58  59  60  61  62  63  64  65  66  67  68
M  SAL   1 15  69  70  71  72  73  74  75  76  77  78  79  80  81  82  83
M  SAL   1  3  84  85  86
M  SPA   1 15   9  10  11  12  13  14  15  16  18  19  20  21  22  23  17
M  SPA   1 15  24  25  26  27  28  29  30  31  32  33  34  35  37  46  47
M  SPA   1  9  36  38  39  40  41  42  43  44  45
M  SDI   1  4   17.2200  -17.0800   17.2200   -9.8700
M  SDI   1  4   45.4300   -9.8700   45.4300  -17.0800
M  SMT   1 2
M  END
