77910626
     RDKit          2D

 50 51  0  0  1  0  0  0  0  0999 V2000
   11.0000    0.8375    0.0000 O   0  0  0  0  0  0  0  0  0  0  0  0
   12.3660   -0.5285    0.0000 O   0  0  0  0  0  0  0  0  0  0  0  0
   14.0981   -1.5285    0.0000 O   0  0  0  0  0  0  0  0  0  0  0  0
    9.5000   -1.7606    0.0000 O   0  0  0  0  0  0  0  0  0  0  0  0
   15.8301   -1.5285    0.0000 O   0  0  0  0  0  0  0  0  0  0  0  0
    8.5000    1.7035    0.0000 O   0  0  0  0  0  0  0  0  0  0  0  0
   12.3660   -3.5285    0.0000 O   0  0  0  0  0  0  0  0  0  0  0  0
   14.0981   -4.5285    0.0000 O   0  0  0  0  0  0  0  0  0  0  0  0
   11.0000    2.5695    0.0000 O   0  0  0  0  0  0  0  0  0  0  0  0
   12.3660    1.4715    0.0000 O   0  0  0  0  0  0  0  0  0  0  0  0
   13.2321   -0.0285    0.0000 O   0  0  0  0  0  0  0  0  0  0  0  0
   10.0000    4.3016    0.0000 O   0  0  0  0  0  0  0  0  0  0  0  0
    8.5000   -1.7606    0.0000 O   0  0  0  0  0  0  0  0  0  0  0  0
   16.6962   -2.0285    0.0000 O   0  0  0  0  0  0  0  0  0  0  0  0
   17.5622    1.4715    0.0000 O   0  0  0  0  0  0  0  0  0  0  0  0
   15.8301    1.4715    0.0000 O   0  0  0  0  0  0  0  0  0  0  0  0
    5.0000   -2.6266    0.0000 O   0  0  0  0  0  0  0  0  0  0  0  0
    5.0000   -0.8946    0.0000 O   0  0  0  0  0  0  0  0  0  0  0  0
    2.5000   -3.4926    0.0000 O   0  0  0  0  0  0  0  0  0  0  0  0
    8.5000   -0.0285    0.0000 N   0  0  0  0  0  0  0  0  0  0  0  0
   15.8301   -3.5285    0.0000 N   0  0  0  0  0  0  0  0  0  0  0  0
    6.5000   -1.7606    0.0000 N   0  0  0  0  0  0  0  0  0  0  0  0
   17.5622   -0.5285    0.0000 N   0  0  0  0  0  0  0  0  0  0  0  0
    9.5000   -0.0285    0.0000 C   0  0  0  0  0  0  0  0  0  0  0  0
   10.0000    0.8375    0.0000 C   0  0  0  0  0  0  0  0  0  0  0  0
   10.0000   -0.8946    0.0000 C   0  0  0  0  0  0  0  0  0  0  0  0
   11.5000   -0.0285    0.0000 C   0  0  0  0  0  0  0  0  0  0  0  0
   11.0000   -0.8946    0.0000 C   0  0  0  0  0  0  0  0  0  0  0  0
    9.5000    1.7035    0.0000 C   0  0  0  0  0  0  0  0  0  0  0  0
   13.2321   -2.0285    0.0000 C   0  0  0  0  0  0  0  0  0  0  0  0
   13.2321   -3.0285    0.0000 C   0  0  0  0  0  0  0  0  0  0  0  0
   14.0981   -3.5285    0.0000 C   0  0  0  0  0  0  0  0  0  0  0  0
   14.9641   -3.0285    0.0000 C   0  0  0  0  0  0  0  0  0  0  0  0
   12.3660   -1.5285    0.0000 C   0  0  0  0  0  0  0  0  0  0  0  0
   14.9641   -2.0285    0.0000 C   0  0  0  0  0  0  0  0  0  0  0  0
   10.0000    2.5695    0.0000 C   0  0  0  0  0  0  0  0  0  0  0  0
   12.3660    0.4715    0.0000 C   0  0  0  0  0  0  0  0  0  0  0  0
    9.5000    3.4356    0.0000 C   0  0  0  0  0  0  0  0  0  0  0  0
    8.0000   -0.8946    0.0000 C   0  0  0  0  0  0  0  0  0  0  0  0
   15.8301   -0.5285    0.0000 C   0  0  0  0  0  0  0  0  0  0  0  0
   16.6962   -3.0285    0.0000 C   0  0  0  0  0  0  0  0  0  0  0  0
    7.0000   -0.8946    0.0000 C   0  0  0  0  0  0  0  0  0  0  0  0
   16.6962   -0.0285    0.0000 C   0  0  0  0  0  0  0  0  0  0  0  0
   14.9641   -0.0285    0.0000 C   0  0  0  0  0  0  0  0  0  0  0  0
   17.5622   -3.5285    0.0000 C   0  0  0  0  0  0  0  0  0  0  0  0
   16.6962    0.9715    0.0000 C   0  0  0  0  0  0  0  0  0  0  0  0
    5.5000   -1.7606    0.0000 C   0  0  0  0  0  0  0  0  0  0  0  0
    4.0000   -2.6266    0.0000 C   0  0  0  0  0  0  0  0  0  0  0  0
    3.5000   -3.4926    0.0000 C   0  0  0  0  0  0  0  0  0  0  0  0
    2.0000   -4.3587    0.0000 C   0  0  0  0  0  0  0  0  0  0  0  0
  1 25  1  0
  1 27  1  0
  2 27  1  0
  2 34  1  0
  3 30  1  0
  3 35  1  0
  4 26  1  0
  5 35  1  0
  5 40  1  0
  6 29  1  0
  7 31  1  0
  8 32  1  0
  9 36  1  0
 10 37  1  0
 11 37  2  0
 12 38  1  0
 13 39  2  0
 14 41  2  0
 15 46  1  0
 16 46  2  0
 17 47  1  0
 17 48  1  0
 18 47  2  0
 19 49  1  0
 19 50  1  0
 20 24  1  0
 20 39  1  0
 21 33  1  0
 21 41  1  0
 22 42  1  0
 22 47  1  0
 23 43  1  0
 24 25  1  0
 24 26  1  0
 25 29  1  0
 26 28  1  0
 27 28  1  0
 27 37  1  0
 29 36  1  0
 30 31  1  0
 30 34  1  0
 31 32  1  0
 32 33  1  0
 33 35  1  0
 36 38  1  0
 39 42  1  0
 40 43  1  0
 40 44  1  0
 41 45  1  0
 43 46  1  0
 48 49  1  0
M  END
