 
     RDKit          2D

 49 54  0  0  0  0  0  0  0  0999 V2000
   22.4791  -15.9596    0.0000 C   0  0  0  0  0  0  0  0  0  0  0  0
   22.4731  -17.3165    0.0000 C   0  0  0  0  0  0  0  0  0  0  0  0
   23.6605  -15.2870    0.0000 C   0  0  0  0  0  0  0  0  0  0  0  0
   21.3034  -15.2811    0.0000 S   0  0  0  0  0  0  0  0  0  0  0  0
   23.6430  -18.0010    0.0000 C   0  0  0  0  0  0  0  0  0  0  0  0
   21.3034  -17.9950    0.0000 N   0  0  0  0  0  0  0  0  0  0  0  0
   24.8304  -15.9713    0.0000 C   0  0  0  0  0  0  0  0  0  0  0  0
   20.1278  -15.9596    0.0000 N   0  0  0  0  0  0  0  0  0  0  0  0
   19.9933  -14.4564    0.0000 O   0  0  0  0  0  0  0  0  0  0  0  0
   22.5376  -14.4564    0.0000 O   0  0  0  0  0  0  0  0  0  0  0  0
   24.8244  -17.3282    0.0000 C   0  0  0  0  0  0  0  0  0  0  0  0
   20.1278  -17.3165    0.0000 C   0  0  0  0  0  0  0  0  0  0  0  0
   26.0118  -15.2987    0.0000 S   0  0  0  0  0  0  0  0  0  0  0  0
   26.0003  -18.0127    0.0000 Cl  0  0  0  0  0  0  0  0  0  0  0  0
   27.2636  -14.4623    0.0000 N   0  0  0  0  0  0  0  0  0  0  0  0
   27.1349  -16.3164    0.0000 O   0  0  0  0  0  0  0  0  0  0  0  0
   24.9357  -14.2516    0.0000 O   0  0  0  0  0  0  0  0  0  0  0  0
    5.1800  -12.9500    0.0000 C   0  0  0  0  0  0  0  0  0  0  0  0
    5.1800  -14.3500    0.0000 C   0  0  0  0  0  0  0  0  0  0  0  0
    6.3924  -15.0500    0.0000 C   0  0  0  0  0  0  0  0  0  0  0  0
    7.6049  -14.3500    0.0000 C   0  0  0  0  0  0  0  0  0  0  0  0
    7.6049  -12.9500    0.0000 C   0  0  0  0  0  0  0  0  0  0  0  0
    6.3924  -12.2500    0.0000 C   0  0  0  0  0  0  0  0  0  0  0  0
    8.8360  -12.2390    0.0000 C   0  0  0  0  0  0  0  0  0  0  0  0
   10.0412  -12.9347    0.0000 C   0  0  0  0  0  0  0  0  0  0  0  0
   11.2535  -12.2346    0.0000 C   0  0  0  0  0  0  0  0  0  0  0  0
   11.2535  -10.8346    0.0000 C   0  0  0  0  0  0  0  0  0  0  0  0
   10.0483  -10.1389    0.0000 C   0  0  0  0  0  0  0  0  0  0  0  0
    8.8359  -10.8390    0.0000 C   0  0  0  0  0  0  0  0  0  0  0  0
    6.3924  -10.8502    0.0000 C   0  0  0  0  0  0  0  0  0  0  0  0
    7.5103  -10.0378    0.0000 N   0  0  0  0  0  0  0  0  0  0  0  0
    7.0831   -8.7236    0.0000 N   0  0  0  0  0  0  0  0  0  0  0  0
    5.7012   -8.7237    0.0000 N   0  0  0  0  0  0  0  0  0  0  0  0
    5.2743  -10.0381    0.0000 N   0  0  0  0  0  0  0  0  0  0  0  0
   12.4714  -10.1312    0.0000 C   0  0  0  0  0  0  0  0  0  0  0  0
   13.6834  -10.8307    0.0000 N   0  0  0  0  0  0  0  0  0  0  0  0
   13.6834  -12.2307    0.0000 C   0  0  0  0  0  0  0  0  0  0  0  0
   15.0148  -12.6634    0.0000 C   0  0  0  0  0  0  0  0  0  0  0  0
   15.8378  -11.5307    0.0000 N   0  0  0  0  0  0  0  0  0  0  0  0
   15.0148  -10.3981    0.0000 C   0  0  0  0  0  0  0  0  0  0  0  0
   12.5198  -13.0762    0.0000 O   0  0  0  0  0  0  0  0  0  0  0  0
   15.0148   -8.9981    0.0000 C   0  0  0  0  0  0  0  0  0  0  0  0
   16.1875   -8.3215    0.0000 C   0  0  0  0  0  0  0  0  0  0  0  0
   17.3902   -9.0164    0.0000 C   0  0  0  0  0  0  0  0  0  0  0  0
   14.1834  -13.7856    0.0000 C   0  0  0  0  0  0  0  0  0  0  0  0
   14.9992  -14.9234    0.0000 C   0  0  0  0  0  0  0  0  0  0  0  0
   16.3334  -14.4992    0.0000 C   0  0  0  0  0  0  0  0  0  0  0  0
   16.3422  -13.0992    0.0000 C   0  0  0  0  0  0  0  0  0  0  0  0
   18.5743   -8.3332    0.0000 C   0  0  0  0  0  0  0  0  0  0  0  0
  1  2  1  0
  1  3  2  0
  1  4  1  0
  2  5  2  0
  2  6  1  0
  3  7  1  0
  4  8  1  0
  4  9  2  0
  4 10  2  0
  5 11  1  0
  6 12  1  0
  7 13  1  0
 11 14  1  0
 13 15  1  0
 13 16  2  0
 13 17  2  0
  7 11  2  0
  8 12  1  0
 18 19  2  0
 19 20  1  0
 20 21  2  0
 21 22  1  0
 22 23  2  0
 18 23  1  0
 22 24  1  0
 24 25  2  0
 25 26  1  0
 26 27  2  0
 27 28  1  0
 28 29  2  0
 24 29  1  0
 23 30  1  0
 30 31  2  0
 31 32  1  0
 32 33  2  0
 33 34  1  0
 30 34  1  0
 27 35  1  0
 35 36  1  0
 36 37  1  0
 37 38  1  0
 38 39  1  0
 39 40  2  0
 36 40  1  0
 37 41  2  0
 40 42  1  0
 42 43  1  0
 43 44  1  0
 38 45  1  0
 45 46  1  0
 46 47  1  0
 47 48  1  0
 38 48  1  0
 44 49  1  0
M  END
