 
     RDKit          2D

145164  0  0  1  0  0  0  0  0999 V2000
   23.5865  -20.2981    0.0000 Cl  0  0  0  0  0  0  0  0  0  0  0  0
   16.6051  -15.0621    0.0000 C   0  0  0  0  0  0  0  0  0  0  0  0
   17.7919  -15.7602    0.0000 C   0  0  0  0  0  0  0  0  0  0  0  0
   15.4182  -15.7602    0.0000 C   0  0  0  0  0  0  0  0  0  0  0  0
   16.6051  -13.7356    0.0000 C   0  0  0  0  0  0  0  0  0  0  0  0
   17.7919  -14.3639    0.0000 C   0  0  0  0  0  0  0  0  0  0  0  0
   18.9787  -15.0621    0.0000 C   0  0  0  0  0  0  0  0  0  0  0  0
   17.7919  -17.1565    0.0000 C   0  0  0  0  0  0  0  0  0  0  0  0
   17.2334  -16.8074    0.0000 C   0  0  0  0  0  0  0  0  0  0  0  0
   15.4182  -17.0867    0.0000 C   0  0  0  0  0  0  0  0  0  0  0  0
   14.7899  -14.2243    0.0000 O   0  0  0  0  0  0  0  0  0  0  0  0
   15.4880  -13.0375    0.0000 C   0  0  0  0  0  0  0  0  0  0  0  0
   17.8617  -13.0375    0.0000 C   0  0  0  0  0  0  0  0  0  0  0  0
   20.1656  -14.3639    0.0000 C   0  0  0  0  0  0  0  0  0  0  0  0
   20.1656  -15.7602    0.0000 N   0  0  0  0  0  0  0  0  0  0  0  0
   18.9785  -13.7356    0.0000 C   0  0  0  0  0  0  0  0  0  0  0  0
   16.6051  -17.7848    0.0000 C   0  0  0  0  0  0  0  0  0  0  0  0
   16.0466  -16.1093    0.0000 C   0  0  0  0  0  0  0  0  0  0  0  0
   15.4880  -11.6412    0.0000 C   0  0  0  0  0  0  0  0  0  0  0  0
   17.8617  -11.6412    0.0000 C   0  0  0  0  0  0  0  0  0  0  0  0
   21.3524  -15.1319    0.0000 C   0  0  0  0  0  0  0  0  0  0  0  0
   16.6749  -10.9431    0.0000 C   0  0  0  0  0  0  0  0  0  0  0  0
   14.3012  -10.9431    0.0000 O   0  0  0  0  0  0  0  0  0  0  0  0
   22.5392  -15.8300    0.0000 C   0  0  0  0  0  0  0  0  0  0  0  0
   23.2374  -17.0169    0.0000 C   0  0  0  0  0  0  0  0  0  0  0  0
   23.9355  -15.8300    0.0000 C   0  0  0  0  0  0  0  0  0  0  0  0
   14.0220  -17.0867    0.0000 O   0  0  0  0  0  0  0  0  0  0  0  0
   13.3238  -15.8998    0.0000 C   0  0  0  0  0  0  0  0  0  0  0  0
   17.3032  -18.9717    0.0000 C   0  0  0  0  0  0  0  0  0  0  0  0
   18.6995  -18.9717    0.0000 C   0  0  0  0  0  0  0  0  0  0  0  0
   16.6051  -20.1585    0.0000 C   0  0  0  0  0  0  0  0  0  0  0  0
   18.0013  -20.1585    0.0000 O   0  0  0  0  0  0  0  0  0  0  0  0
   15.2088  -20.1585    0.0000 C   0  0  0  0  0  0  0  0  0  0  0  0
   17.3032  -21.3453    0.0000 C   0  0  0  0  0  0  0  0  0  0  0  0
   15.7673  -21.4151    0.0000 C   0  0  0  0  0  0  0  0  0  0  0  0
   16.5998  -15.1247    0.0000 C   0  0  0  0  0  0  0  0  0  0  0  0
   17.7863  -15.8227    0.0000 C   0  0  0  0  0  0  0  0  0  0  0  0
   15.4132  -15.8227    0.0000 C   0  0  0  0  0  0  0  0  0  0  0  0
   16.5998  -13.7986    0.0000 C   0  0  0  0  0  0  0  0  0  0  0  0
   17.7863  -14.4267    0.0000 C   0  0  0  0  0  0  0  0  0  0  0  0
   18.9729  -15.1247    0.0000 C   0  0  0  0  0  0  0  0  0  0  0  0
   17.7863  -17.2186    0.0000 C   0  0  0  0  0  0  0  0  0  0  0  0
   17.2280  -16.8697    0.0000 C   0  0  0  0  0  0  0  0  0  0  0  0
   15.4132  -17.1488    0.0000 C   0  0  0  0  0  0  0  0  0  0  0  0
   14.7851  -14.2872    0.0000 O   0  0  0  0  0  0  0  0  0  0  0  0
   15.4830  -13.1006    0.0000 C   0  0  0  0  0  0  0  0  0  0  0  0
   17.8561  -13.1006    0.0000 C   0  0  0  0  0  0  0  0  0  0  0  0
   20.1595  -14.4267    0.0000 C   0  0  0  0  0  0  0  0  0  0  0  0
   20.1595  -15.8227    0.0000 N   0  0  0  0  0  0  0  0  0  0  0  0
   18.9727  -13.7986    0.0000 C   0  0  0  0  0  0  0  0  0  0  0  0
   16.5998  -17.8468    0.0000 C   0  0  0  0  0  0  0  0  0  0  0  0
   16.0414  -16.1717    0.0000 C   0  0  0  0  0  0  0  0  0  0  0  0
   15.4830  -11.7047    0.0000 C   0  0  0  0  0  0  0  0  0  0  0  0
   17.8561  -11.7047    0.0000 C   0  0  0  0  0  0  0  0  0  0  0  0
   21.3460  -15.1945    0.0000 C   0  0  0  0  0  0  0  0  0  0  0  0
   16.6696  -11.0067    0.0000 C   0  0  0  0  0  0  0  0  0  0  0  0
   14.2965  -11.0067    0.0000 O   0  0  0  0  0  0  0  0  0  0  0  0
   22.5326  -15.8925    0.0000 C   0  0  0  0  0  0  0  0  0  0  0  0
   23.2305  -17.0790    0.0000 C   0  0  0  0  0  0  0  0  0  0  0  0
   23.9285  -15.8925    0.0000 C   0  0  0  0  0  0  0  0  0  0  0  0
   14.0173  -17.1488    0.0000 O   0  0  0  0  0  0  0  0  0  0  0  0
   13.3193  -15.9400    0.0000 C   0  0  0  0  0  0  0  0  0  0  0  0
   17.2978  -19.0557    0.0000 C   0  0  0  0  0  0  0  0  0  0  0  0
   18.6935  -19.0557    0.0000 C   0  0  0  0  0  0  0  0  0  0  0  0
   16.6094  -20.2477    0.0000 C   0  0  0  0  0  0  0  0  0  0  0  0
   17.9861  -20.2478    0.0000 O   0  0  0  0  0  0  0  0  0  0  0  0
   15.2041  -20.2478    0.0000 C   0  0  0  0  0  0  0  0  0  0  0  0
   17.2930  -21.4316    0.0000 C   0  0  0  0  0  0  0  0  0  0  0  0
   15.7619  -21.4443    0.0000 C   0  0  0  0  0  0  0  0  0  0  0  0
   21.7908  -14.2119    0.0000 Cl  0  0  0  0  0  0  0  0  0  0  0  0
   14.0948  -15.5899    0.0000 C   0  0  0  0  0  0  0  0  0  0  0  0
   14.0948  -14.2668    0.0000 C   0  0  0  0  0  0  0  0  0  0  0  0
   15.2786  -16.2861    0.0000 C   0  0  0  0  0  0  0  0  0  0  0  0
   12.9806  -16.2166    0.0000 C   0  0  0  0  0  0  0  0  0  0  0  0
   15.2786  -14.9632    0.0000 C   0  0  0  0  0  0  0  0  0  0  0  0
   12.9806  -13.6401    0.0000 C   0  0  0  0  0  0  0  0  0  0  0  0
   15.2786  -13.6401    0.0000 C   0  0  0  0  0  0  0  0  0  0  0  0
   16.3927  -15.5899    0.0000 C   0  0  0  0  0  0  0  0  0  0  0  0
   15.2786  -17.5396    0.0000 C   0  0  0  0  0  0  0  0  0  0  0  0
   11.6576  -14.8934    0.0000 O   0  0  0  0  0  0  0  0  0  0  0  0
   12.9806  -17.5396    0.0000 C   0  0  0  0  0  0  0  0  0  0  0  0
   17.5068  -14.9632    0.0000 C   0  0  0  0  0  0  0  0  0  0  0  0
   12.9806  -12.3171    0.0000 C   0  0  0  0  0  0  0  0  0  0  0  0
   16.3927  -14.3364    0.0000 C   0  0  0  0  0  0  0  0  0  0  0  0
   15.2786  -12.3171    0.0000 C   0  0  0  0  0  0  0  0  0  0  0  0
   17.5068  -16.2861    0.0000 N   0  0  0  0  0  0  0  0  0  0  0  0
   14.0948  -18.2359    0.0000 C   0  0  0  0  0  0  0  0  0  0  0  0
   11.8665  -18.2359    0.0000 O   0  0  0  0  0  0  0  0  0  0  0  0
   14.1644  -11.6904    0.0000 C   0  0  0  0  0  0  0  0  0  0  0  0
   11.8665  -11.6904    0.0000 O   0  0  0  0  0  0  0  0  0  0  0  0
   16.5319  -17.1914    0.0000 O   0  0  0  0  0  0  0  0  0  0  0  0
   18.9047  -16.2861    0.0000 C   0  0  0  0  0  0  0  0  0  0  0  0
   19.6072  -17.5026    0.0000 C   0  0  0  0  0  0  0  0  0  0  0  0
   21.0000  -17.5025    0.0000 C   0  0  0  0  0  0  0  0  0  0  0  0
   21.9100  -18.6200    0.0000 C   0  0  0  0  0  0  0  0  0  0  0  0
   21.9100  -17.2900    0.0000 C   0  0  0  0  0  0  0  0  0  0  0  0
   23.1000  -19.2500    0.0000 C   0  0  0  0  0  0  0  0  0  0  0  0
   20.7900  -19.1800    0.0000 C   0  0  0  0  0  0  0  0  0  0  0  0
   23.1000  -17.9900    0.0000 C   0  0  0  0  0  0  0  0  0  0  0  0
   20.7900  -16.6600    0.0000 C   0  0  0  0  0  0  0  0  0  0  0  0
   23.1000  -16.6600    0.0000 C   0  0  0  0  0  0  0  0  0  0  0  0
   24.2200  -18.6200    0.0000 C   0  0  0  0  0  0  0  0  0  0  0  0
   23.1000  -20.5100    0.0000 C   0  0  0  0  0  0  0  0  0  0  0  0
   19.4600  -17.9200    0.0000 O   0  0  0  0  0  0  0  0  0  0  0  0
   20.7900  -20.5100    0.0000 C   0  0  0  0  0  0  0  0  0  0  0  0
   25.3400  -17.9900    0.0000 C   0  0  0  0  0  0  0  0  0  0  0  0
   20.7900  -15.3300    0.0000 C   0  0  0  0  0  0  0  0  0  0  0  0
   24.2200  -17.3600    0.0000 C   0  0  0  0  0  0  0  0  0  0  0  0
   23.1000  -15.3300    0.0000 C   0  0  0  0  0  0  0  0  0  0  0  0
   25.3400  -19.2500    0.0000 N   0  0  0  0  0  0  0  0  0  0  0  0
   21.9100  -21.2100    0.0000 C   0  0  0  0  0  0  0  0  0  0  0  0
   19.6700  -21.2100    0.0000 O   0  0  0  0  0  0  0  0  0  0  0  0
   21.9800  -14.7000    0.0000 C   0  0  0  0  0  0  0  0  0  0  0  0
   19.6700  -14.7000    0.0000 O   0  0  0  0  0  0  0  0  0  0  0  0
   24.3600  -20.1600    0.0000 O   0  0  0  0  0  0  0  0  0  0  0  0
   26.7400  -19.2500    0.0000 C   0  0  0  0  0  0  0  0  0  0  0  0
   27.4400  -20.5100    0.0000 C   0  0  0  0  0  0  0  0  0  0  0  0
   28.8400  -20.5100    0.0000 C   0  0  0  0  0  0  0  0  0  0  0  0
   23.7264  -16.5177    0.0000 Cl  0  0  0  0  0  0  0  0  0  0  0  0
   16.0276  -16.8674    0.0000 C   0  0  0  0  0  0  0  0  0  0  0  0
   16.0276  -15.5376    0.0000 C   0  0  0  0  0  0  0  0  0  0  0  0
   17.2174  -17.4974    0.0000 C   0  0  0  0  0  0  0  0  0  0  0  0
   14.9077  -17.4274    0.0000 C   0  0  0  0  0  0  0  0  0  0  0  0
   17.2174  -16.2375    0.0000 C   0  0  0  0  0  0  0  0  0  0  0  0
   14.9077  -14.9077    0.0000 C   0  0  0  0  0  0  0  0  0  0  0  0
   17.2174  -14.9077    0.0000 C   0  0  0  0  0  0  0  0  0  0  0  0
   18.3372  -16.8674    0.0000 C   0  0  0  0  0  0  0  0  0  0  0  0
   17.2174  -18.7572    0.0000 C   0  0  0  0  0  0  0  0  0  0  0  0
   13.5779  -16.1676    0.0000 O   0  0  0  0  0  0  0  0  0  0  0  0
   14.9077  -18.7572    0.0000 C   0  0  0  0  0  0  0  0  0  0  0  0
   19.4571  -16.2375    0.0000 C   0  0  0  0  0  0  0  0  0  0  0  0
   14.9077  -13.5779    0.0000 C   0  0  0  0  0  0  0  0  0  0  0  0
   18.3372  -15.6076    0.0000 C   0  0  0  0  0  0  0  0  0  0  0  0
   17.2174  -13.5779    0.0000 C   0  0  0  0  0  0  0  0  0  0  0  0
   19.4571  -17.4974    0.0000 N   0  0  0  0  0  0  0  0  0  0  0  0
   16.0276  -19.4571    0.0000 C   0  0  0  0  0  0  0  0  0  0  0  0
   13.7879  -19.4571    0.0000 O   0  0  0  0  0  0  0  0  0  0  0  0
   16.0976  -12.9480    0.0000 C   0  0  0  0  0  0  0  0  0  0  0  0
   13.7879  -12.9480    0.0000 O   0  0  0  0  0  0  0  0  0  0  0  0
   18.4772  -18.4072    0.0000 O   0  0  0  0  0  0  0  0  0  0  0  0
   20.8568  -17.4974    0.0000 C   0  0  0  0  0  0  0  0  0  0  0  0
   21.5567  -18.7572    0.0000 C   0  0  0  0  0  0  0  0  0  0  0  0
   22.9565  -18.7572    0.0000 C   0  0  0  0  0  0  0  0  0  0  0  0
   24.2200  -14.3500    0.0000 O   0  0  0  0  0  0  0  0  0  0  0  0
   24.2200  -12.6700    0.0000 O   0  0  0  0  0  0  0  0  0  0  0  0
  2  6  1  1
  3  7  1  0
  3  8  1  0
  3  9  1  6
  4 10  1  0
  4 11  1  6
  5 12  2  0
  5 13  1  0
  6 14  1  0
  7 15  1  0
  7 16  1  1
 17  8  1  6
  9 18  1  0
 12 19  1  0
 13 20  2  0
 15 21  1  0
 19 22  2  0
 19 23  1  0
 10 17  1  0
 10 18  1  0
 11 12  1  0
 13 16  1  0
 15 14  1  0
 20 22  1  0
  2  3  1  0
 21 24  1  0
  2  4  1  0
  2  5  1  0
 24 25  1  0
 24 26  1  0
 26 25  1  0
 10 27  1  6
 27 28  1  0
 17 29  1  0
 29 30  1  1
 29 31  1  0
 29 32  1  0
 31 33  1  0
 31 34  1  0
 31 35  1  0
 36 40  1  1
 37 41  1  0
 37 42  1  0
 37 43  1  6
 38 44  1  0
 38 45  1  6
 39 46  2  0
 39 47  1  0
 40 48  1  0
 41 49  1  0
 41 50  1  1
 51 42  1  6
 43 52  1  0
 46 53  1  0
 47 54  2  0
 49 55  1  0
 53 56  2  0
 53 57  1  0
 44 51  1  0
 44 52  1  0
 45 46  1  0
 47 50  1  0
 49 48  1  0
 54 56  1  0
 36 37  1  0
 55 58  1  0
 36 38  1  0
 36 39  1  0
 58 59  1  0
 58 60  1  0
 60 59  1  0
 44 61  1  6
 61 62  1  0
 51 63  1  0
 63 64  1  1
 63 65  1  0
 63 66  1  0
 65 67  1  0
 65 68  1  0
 65 69  1  0
 71 72  1  0
 71 73  1  0
 71 74  1  0
 71 75  1  1
 72 76  2  0
 72 77  1  0
 73 78  1  0
 73 79  1  0
 74 80  1  6
 74 81  1  0
 75 82  1  0
 76 83  1  0
 77 84  1  0
 77 85  2  0
 78 86  1  0
 79 87  1  0
 81 88  2  0
 83 89  2  0
 83 90  1  0
 76 80  1  0
 78 84  1  1
 81 87  1  0
 82 86  1  0
 85 89  1  0
 73 91  1  1
 86 92  1  0
 92 93  1  0
 93 94  2  0
 95 96  1  0
 95 97  1  0
 95 98  1  0
 95 99  1  1
 96100  2  0
 96101  1  0
 97102  1  0
 97103  1  0
 98104  1  6
 98105  1  0
 99106  1  0
100107  1  0
101108  1  0
101109  2  0
102110  1  0
103111  1  0
105112  2  0
107113  2  0
107114  1  0
100104  1  0
102108  1  1
105111  1  0
106110  1  0
109113  1  0
 97115  1  1
110116  1  0
116117  1  0
117118  2  0
120121  1  0
120122  1  0
120123  1  0
120124  1  1
121125  2  0
121126  1  0
122127  1  0
122128  1  0
123129  1  6
123130  1  0
124131  1  0
125132  1  0
126133  1  0
126134  2  0
127135  1  0
128136  1  0
130137  2  0
132138  2  0
132139  1  0
125129  1  0
127133  1  1
130136  1  0
131135  1  0
134138  1  0
122140  1  1
135141  1  0
141142  1  0
142143  2  0
M  END
