 
     RDKit          2D

 49 51  0  0  1  0  0  0  0  0999 V2000
   23.3231  -19.6615    0.0000 C   0  0  0  0  0  0  0  0  0  0  0  0
   22.4372  -18.5840    0.0000 C   0  0  0  0  0  0  0  0  0  0  0  0
   22.7197  -17.2133    0.0000 C   0  0  0  0  0  0  0  0  0  0  0  0
   23.9591  -16.5857    0.0000 N   0  0  0  0  0  0  0  0  0  0  0  0
   24.7308  -19.7019    0.0000 C   0  0  0  0  0  0  0  0  0  0  0  0
   25.2377  -17.1596    0.0000 C   0  0  0  0  0  0  0  0  0  0  0  0
   25.5777  -18.5180    0.0000 C   0  0  0  0  0  0  0  0  0  0  0  0
   21.6743  -16.2838    0.0000 C   0  0  0  0  0  0  0  0  0  0  0  0
   20.3466  -16.7242    0.0000 C   0  0  0  0  0  0  0  0  0  0  0  0
   20.0641  -18.0949    0.0000 C   0  0  0  0  0  0  0  0  0  0  0  0
   21.1095  -19.0246    0.0000 C   0  0  0  0  0  0  0  0  0  0  0  0
   23.9262  -15.1817    0.0000 C   0  0  0  0  0  0  0  0  0  0  0  0
   25.1248  -14.4519    0.0000 C   0  0  0  0  0  0  0  0  0  0  0  0
   26.3615  -15.1276    0.0000 O   0  0  0  0  0  0  0  0  0  0  0  0
   25.1625  -13.0836    0.0000 O   0  0  0  0  0  0  0  0  0  0  0  0
   26.3330  -16.2423    0.0000 O   0  0  0  0  0  0  0  0  0  0  0  0
   26.9766  -18.5180    0.0000 N   0  0  0  0  0  0  0  0  0  0  0  0
   27.6929  -19.7595    0.0000 C   0  0  0  0  0  0  0  0  0  0  0  0
   29.1069  -19.7602    0.0000 C   0  0  0  0  0  0  0  0  0  0  0  0
   27.0102  -20.9405    0.0000 C   0  0  0  0  0  0  0  0  0  0  0  0
   29.8213  -18.5252    0.0000 C   0  0  0  0  0  0  0  0  0  0  0  0
   31.2056  -18.5264    0.0000 C   0  0  0  0  0  0  0  0  0  0  0  0
   25.6102  -20.9399    0.0000 O   0  0  0  0  0  0  0  0  0  0  0  0
   27.6989  -22.1343    0.0000 O   0  0  0  0  0  0  0  0  0  0  0  0
   29.1070  -22.1349    0.0000 C   0  0  0  0  0  0  0  0  0  0  0  0
   29.7937  -23.3254    0.0000 C   0  0  0  0  0  0  0  0  0  0  0  0
   31.9096  -19.7481    0.0000 C   0  0  0  0  0  0  0  0  0  0  0  0
   33.3085  -19.7492    0.0000 C   0  0  0  0  0  0  0  0  0  0  0  0
   34.0091  -18.5383    0.0000 C   0  0  0  0  0  0  0  0  0  0  0  0
   33.3051  -17.3167    0.0000 C   0  0  0  0  0  0  0  0  0  0  0  0
   31.9062  -17.3155    0.0000 C   0  0  0  0  0  0  0  0  0  0  0  0
   34.6331  -22.3162    0.0000 Cl  0  0  0  0  0  0  0  0  0  0  0  0
   22.4791  -15.9596    0.0000 C   0  0  0  0  0  0  0  0  0  0  0  0
   22.4731  -17.3165    0.0000 C   0  0  0  0  0  0  0  0  0  0  0  0
   23.6605  -15.2870    0.0000 C   0  0  0  0  0  0  0  0  0  0  0  0
   21.3034  -15.2811    0.0000 S   0  0  0  0  0  0  0  0  0  0  0  0
   23.6430  -18.0010    0.0000 C   0  0  0  0  0  0  0  0  0  0  0  0
   21.3034  -17.9950    0.0000 N   0  0  0  0  0  0  0  0  0  0  0  0
   24.8304  -15.9713    0.0000 C   0  0  0  0  0  0  0  0  0  0  0  0
   20.1278  -15.9596    0.0000 N   0  0  0  0  0  0  0  0  0  0  0  0
   19.9933  -14.4564    0.0000 O   0  0  0  0  0  0  0  0  0  0  0  0
   22.5376  -14.4564    0.0000 O   0  0  0  0  0  0  0  0  0  0  0  0
   24.8244  -17.3282    0.0000 C   0  0  0  0  0  0  0  0  0  0  0  0
   20.1278  -17.3165    0.0000 C   0  0  0  0  0  0  0  0  0  0  0  0
   26.0118  -15.2987    0.0000 S   0  0  0  0  0  0  0  0  0  0  0  0
   26.0003  -18.0127    0.0000 Cl  0  0  0  0  0  0  0  0  0  0  0  0
   27.2636  -14.4623    0.0000 N   0  0  0  0  0  0  0  0  0  0  0  0
   27.1349  -16.3164    0.0000 O   0  0  0  0  0  0  0  0  0  0  0  0
   24.9357  -14.2516    0.0000 O   0  0  0  0  0  0  0  0  0  0  0  0
  3  4  1  0
  1  5  1  0
  4  6  1  0
  2  3  2  0
  5  7  1  0
  1  2  1  0
  6  7  1  0
  3  8  1  0
  8  9  2  0
  9 10  1  0
 10 11  2  0
  2 11  1  0
  4 12  1  0
 12 13  1  0
 13 14  1  0
 13 15  2  0
  6 16  2  0
  7 17  1  1
 17 18  1  0
 18 19  1  1
 18 20  1  0
 19 21  1  0
 21 22  1  0
 20 23  2  0
 20 24  1  0
 24 25  1  0
 25 26  1  0
 22 27  2  0
 27 28  1  0
 28 29  2  0
 29 30  1  0
 30 31  2  0
 22 31  1  0
 33 34  1  0
 33 35  2  0
 33 36  1  0
 34 37  2  0
 34 38  1  0
 35 39  1  0
 36 40  1  0
 36 41  2  0
 36 42  2  0
 37 43  1  0
 38 44  1  0
 39 45  1  0
 43 46  1  0
 45 47  1  0
 45 48  2  0
 45 49  2  0
 39 43  2  0
 40 44  1  0
M  END
