 
     RDKit          2D

111110  0  1  1  0  0  0  0  0999 V2000
   28.6300  -22.7500    0.0000 C   0  0  0  0  0  0  0  0  0  0  0  0
   29.8900  -22.0500    0.0000 C   0  0  0  0  0  0  0  0  0  0  0  0
   27.4400  -22.0500    0.0000 C   0  0  0  0  0  0  0  0  0  0  0  0
   28.6300  -24.1500    0.0000 O   0  0  0  0  0  0  0  0  0  0  0  0
   31.0800  -22.7500    0.0000 C   0  0  0  0  0  0  0  0  0  0  0  0
   29.8900  -20.6500    0.0000 O   0  0  0  0  0  0  0  0  0  0  0  0
   26.2500  -22.7500    0.0000 O   0  0  0  0  0  0  0  0  0  0  0  0
   27.4400  -20.6500    0.0000 O   0  0  0  0  0  0  0  0  0  0  0  0
   32.2700  -22.0500    0.0000 O   0  0  0  0  0  0  0  0  0  0  0  0
   31.0800  -24.1500    0.0000 O   0  0  0  0  0  0  0  0  0  0  0  0
   14.6300  -19.8800    0.0000 O   0  0  0  0  0  0  0  0  0  0  0  0
   15.8200  -19.1800    0.0000 C   0  0  0  0  0  0  0  0  0  0  0  0
   17.0100  -19.8800    0.0000 C   0  0  0  0  0  0  0  0  0  0  0  0
   18.2000  -19.1800    0.0000 C   0  0  0  0  0  0  0  0  0  0  0  0
   17.0100  -21.2800    0.0000 O   0  0  0  0  0  0  0  0  0  0  0  0
   19.4600  -19.8800    0.0000 N   0  0  0  0  0  0  0  0  0  0  0  0
   20.6500  -19.1800    0.0000 C   0  0  0  0  0  0  0  0  0  0  0  0
   21.8400  -19.8800    0.0000 C   0  0  0  0  0  0  0  0  0  0  0  0
   20.6500  -17.8500    0.0000 C   0  0  0  0  0  0  0  0  0  0  0  0
   14.6300  -21.2800    0.0000 C   0  0  0  0  0  0  0  0  0  0  0  0
   13.4176  -21.9800    0.0000 C   0  0  0  0  0  0  0  0  0  0  0  0
   13.4176  -23.3800    0.0000 C   0  0  0  0  0  0  0  0  0  0  0  0
   14.6300  -24.0800    0.0000 C   0  0  0  0  0  0  0  0  0  0  0  0
   15.8424  -23.3800    0.0000 C   0  0  0  0  0  0  0  0  0  0  0  0
   15.8424  -21.9800    0.0000 C   0  0  0  0  0  0  0  0  0  0  0  0
   14.6300  -25.4800    0.0000 C   0  0  0  0  0  0  0  0  0  0  0  0
   13.4176  -26.1800    0.0000 C   0  0  0  0  0  0  0  0  0  0  0  0
   12.2221  -25.4896    0.0000 O   0  0  0  0  0  0  0  0  0  0  0  0
   11.0347  -26.1751    0.0000 C   0  0  0  0  0  0  0  0  0  0  0  0
   14.6300  -19.8800    0.0000 O   0  0  0  0  0  0  0  0  0  0  0  0
   15.8200  -19.1800    0.0000 C   0  0  0  0  0  0  0  0  0  0  0  0
   17.0100  -19.8800    0.0000 C   0  0  0  0  0  0  0  0  0  0  0  0
   18.2000  -19.1800    0.0000 C   0  0  0  0  0  0  0  0  0  0  0  0
   19.4600  -19.8800    0.0000 N   0  0  0  0  0  0  0  0  0  0  0  0
   20.6500  -19.1800    0.0000 C   0  0  0  0  0  0  0  0  0  0  0  0
   21.8400  -19.8800    0.0000 C   0  0  0  0  0  0  0  0  0  0  0  0
   20.6500  -17.8500    0.0000 C   0  0  0  0  0  0  0  0  0  0  0  0
   17.0100  -21.2800    0.0000 O   0  0  0  0  0  0  0  0  0  0  0  0
   14.6300  -21.2800    0.0000 C   0  0  0  0  0  0  0  0  0  0  0  0
   13.4176  -21.9800    0.0000 C   0  0  0  0  0  0  0  0  0  0  0  0
   13.4176  -23.3800    0.0000 C   0  0  0  0  0  0  0  0  0  0  0  0
   14.6300  -24.0800    0.0000 C   0  0  0  0  0  0  0  0  0  0  0  0
   15.8424  -23.3800    0.0000 C   0  0  0  0  0  0  0  0  0  0  0  0
   15.8424  -21.9800    0.0000 C   0  0  0  0  0  0  0  0  0  0  0  0
   14.6300  -25.4800    0.0000 C   0  0  0  0  0  0  0  0  0  0  0  0
   13.4176  -26.1800    0.0000 C   0  0  0  0  0  0  0  0  0  0  0  0
   12.2221  -25.4896    0.0000 O   0  0  0  0  0  0  0  0  0  0  0  0
   11.0347  -26.1751    0.0000 C   0  0  0  0  0  0  0  0  0  0  0  0
   31.7165  -26.4564    0.0000 C   0  0  0  0  0  0  0  0  0  0  0  0
   32.9266  -25.7589    0.0000 C   0  0  0  0  0  0  0  0  0  0  0  0
   30.4992  -25.7659    0.0000 C   0  0  0  0  0  0  0  0  0  0  0  0
   34.1437  -26.4494    0.0000 C   0  0  0  0  0  0  0  0  0  0  0  0
   29.2892  -26.4634    0.0000 O   0  0  0  0  0  0  0  0  0  0  0  0
   30.4992  -24.3637    0.0000 O   0  0  0  0  0  0  0  0  0  0  0  0
   35.3538  -25.7517    0.0000 O   0  0  0  0  0  0  0  0  0  0  0  0
   34.1437  -27.8587    0.0000 O   0  0  0  0  0  0  0  0  0  0  0  0
   17.6400  -23.5900    0.0000 O   0  0  0  0  0  0  0  0  0  0  0  0
   18.9000  -22.8900    0.0000 C   0  0  0  0  0  0  0  0  0  0  0  0
   20.0900  -23.5900    0.0000 C   0  0  0  0  0  0  0  0  0  0  0  0
   21.2800  -22.8900    0.0000 C   0  0  0  0  0  0  0  0  0  0  0  0
   20.0900  -24.9900    0.0000 O   0  0  0  0  0  0  0  0  0  0  0  0
   22.5400  -23.5900    0.0000 N   0  0  0  0  0  0  0  0  0  0  0  0
   23.7300  -22.8900    0.0000 C   0  0  0  0  0  0  0  0  0  0  0  0
   24.9200  -23.5900    0.0000 C   0  0  0  0  0  0  0  0  0  0  0  0
   23.7300  -21.5600    0.0000 C   0  0  0  0  0  0  0  0  0  0  0  0
   17.6400  -24.9900    0.0000 C   0  0  0  0  0  0  0  0  0  0  0  0
   16.4276  -25.6900    0.0000 C   0  0  0  0  0  0  0  0  0  0  0  0
   16.4276  -27.0900    0.0000 C   0  0  0  0  0  0  0  0  0  0  0  0
   17.6400  -27.7900    0.0000 C   0  0  0  0  0  0  0  0  0  0  0  0
   18.8524  -27.0900    0.0000 C   0  0  0  0  0  0  0  0  0  0  0  0
   18.8524  -25.6900    0.0000 C   0  0  0  0  0  0  0  0  0  0  0  0
   17.6400  -29.1900    0.0000 C   0  0  0  0  0  0  0  0  0  0  0  0
   16.4276  -29.8900    0.0000 C   0  0  0  0  0  0  0  0  0  0  0  0
   15.2321  -29.1996    0.0000 O   0  0  0  0  0  0  0  0  0  0  0  0
   14.0447  -29.8851    0.0000 C   0  0  0  0  0  0  0  0  0  0  0  0
   17.6400  -23.5900    0.0000 O   0  0  0  0  0  0  0  0  0  0  0  0
   18.9000  -22.8900    0.0000 C   0  0  0  0  0  0  0  0  0  0  0  0
   20.0900  -23.5900    0.0000 C   0  0  0  0  0  0  0  0  0  0  0  0
   21.2800  -22.8900    0.0000 C   0  0  0  0  0  0  0  0  0  0  0  0
   22.5400  -23.5900    0.0000 N   0  0  0  0  0  0  0  0  0  0  0  0
   23.7300  -22.8900    0.0000 C   0  0  0  0  0  0  0  0  0  0  0  0
   24.9200  -23.5900    0.0000 C   0  0  0  0  0  0  0  0  0  0  0  0
   23.7300  -21.5600    0.0000 C   0  0  0  0  0  0  0  0  0  0  0  0
   20.0900  -24.9900    0.0000 O   0  0  0  0  0  0  0  0  0  0  0  0
   17.6400  -24.9900    0.0000 C   0  0  0  0  0  0  0  0  0  0  0  0
   16.4276  -25.6900    0.0000 C   0  0  0  0  0  0  0  0  0  0  0  0
   16.4276  -27.0900    0.0000 C   0  0  0  0  0  0  0  0  0  0  0  0
   17.6400  -27.7900    0.0000 C   0  0  0  0  0  0  0  0  0  0  0  0
   18.8524  -27.0900    0.0000 C   0  0  0  0  0  0  0  0  0  0  0  0
   18.8524  -25.6900    0.0000 C   0  0  0  0  0  0  0  0  0  0  0  0
   17.6400  -29.1900    0.0000 C   0  0  0  0  0  0  0  0  0  0  0  0
   16.4276  -29.8900    0.0000 C   0  0  0  0  0  0  0  0  0  0  0  0
   15.2321  -29.1996    0.0000 O   0  0  0  0  0  0  0  0  0  0  0  0
   14.0447  -29.8851    0.0000 C   0  0  0  0  0  0  0  0  0  0  0  0
   22.4791  -15.9596    0.0000 C   0  0  0  0  0  0  0  0  0  0  0  0
   22.4731  -17.3165    0.0000 C   0  0  0  0  0  0  0  0  0  0  0  0
   23.6605  -15.2870    0.0000 C   0  0  0  0  0  0  0  0  0  0  0  0
   21.3034  -15.2811    0.0000 S   0  0  0  0  0  0  0  0  0  0  0  0
   23.6430  -18.0010    0.0000 C   0  0  0  0  0  0  0  0  0  0  0  0
   21.3034  -17.9950    0.0000 N   0  0  0  0  0  0  0  0  0  0  0  0
   24.8304  -15.9713    0.0000 C   0  0  0  0  0  0  0  0  0  0  0  0
   20.1278  -15.9596    0.0000 N   0  0  0  0  0  0  0  0  0  0  0  0
   19.9933  -14.4564    0.0000 O   0  0  0  0  0  0  0  0  0  0  0  0
   22.5376  -14.4564    0.0000 O   0  0  0  0  0  0  0  0  0  0  0  0
   24.8244  -17.3282    0.0000 C   0  0  0  0  0  0  0  0  0  0  0  0
   20.1278  -17.3165    0.0000 C   0  0  0  0  0  0  0  0  0  0  0  0
   26.0118  -15.2987    0.0000 S   0  0  0  0  0  0  0  0  0  0  0  0
   26.0003  -18.0127    0.0000 Cl  0  0  0  0  0  0  0  0  0  0  0  0
   27.2636  -14.4623    0.0000 N   0  0  0  0  0  0  0  0  0  0  0  0
   27.1349  -16.3164    0.0000 O   0  0  0  0  0  0  0  0  0  0  0  0
   24.9357  -14.2516    0.0000 O   0  0  0  0  0  0  0  0  0  0  0  0
  1  2  1  0
  1  3  1  0
  1  4  1  1
  2  5  1  0
  2  6  1  1
  3  7  1  0
  3  8  2  0
  5  9  1  0
  5 10  2  0
 11 12  1  0
 12 13  1  0
 13 14  1  0
 13 15  1  0
 14 16  1  0
 16 17  1  0
 17 18  1  0
 17 19  1  0
 11 20  1  0
 20 21  2  0
 21 22  1  0
 22 23  2  0
 23 24  1  0
 24 25  2  0
 20 25  1  0
 23 26  1  0
 26 27  1  0
 27 28  1  0
 28 29  1  0
 30 31  1  0
 31 32  1  0
 32 33  1  0
 32 38  1  0
 33 34  1  0
 34 35  1  0
 35 36  1  0
 35 37  1  0
 30 39  1  0
 39 40  2  0
 40 41  1  0
 41 42  2  0
 42 43  1  0
 43 44  2  0
 39 44  1  0
 42 45  1  0
 45 46  1  0
 46 47  1  0
 47 48  1  0
 49 50  1  0
 49 51  1  0
 50 52  1  0
 51 53  1  0
 51 54  2  0
 52 55  1  0
 52 56  2  0
 57 58  1  0
 58 59  1  0
 59 60  1  0
 59 61  1  0
 60 62  1  0
 62 63  1  0
 63 64  1  0
 63 65  1  0
 57 66  1  0
 66 67  2  0
 67 68  1  0
 68 69  2  0
 69 70  1  0
 70 71  2  0
 66 71  1  0
 69 72  1  0
 72 73  1  0
 73 74  1  0
 74 75  1  0
 76 77  1  0
 77 78  1  0
 78 79  1  0
 78 84  1  0
 79 80  1  0
 80 81  1  0
 81 82  1  0
 81 83  1  0
 76 85  1  0
 85 86  2  0
 86 87  1  0
 87 88  2  0
 88 89  1  0
 89 90  2  0
 85 90  1  0
 88 91  1  0
 91 92  1  0
 92 93  1  0
 93 94  1  0
 95 96  1  0
 95 97  2  0
 95 98  1  0
 96 99  2  0
 96100  1  0
 97101  1  0
 98102  1  0
 98103  2  0
 98104  2  0
 99105  1  0
100106  1  0
101107  1  0
105108  1  0
107109  1  0
107110  2  0
107111  2  0
101105  2  0
102106  1  0
M  STY  1   1 MUL
M  SLB  1   1   1
M  SCN  1   1 HT 
M  SAL   1 15  11  12  13  14  15  16  17  18  19  20  21  22  23  24  25
M  SAL   1 15  26  27  28  29  30  31  32  33  34  35  36  37  38  39  40
M  SAL   1  8  41  42  43  44  45  46  47  48
M  SPA   1 15  11  12  13  14  16  17  18  19  15  20  21  22  23  24  25
M  SPA   1  4  26  27  28  29
M  SDI   1  4    8.7500  -26.9500    8.7500  -16.5900
M  SDI   1  4   23.7300  -16.5900   23.7300  -26.9500
M  SMT   1 2
M  END
