 
     RDKit          2D

 58 63  0  0  0  0  0  0  0  0999 V2000
   37.1157  -18.9063    0.0000 C   0  0  0  0  0  0  0  0  0  0  0  0
   36.4167  -20.1172    0.0000 C   0  0  0  0  0  0  0  0  0  0  0  0
   35.0273  -20.1154    0.0000 C   0  0  0  0  0  0  0  0  0  0  0  0
   34.6625  -21.4576    0.0000 O   0  0  0  0  0  0  0  0  0  0  0  0
   35.8267  -22.2192    0.0000 C   0  0  0  0  0  0  0  0  0  0  0  0
   36.9105  -21.3475    0.0000 O   0  0  0  0  0  0  0  0  0  0  0  0
   37.1245  -16.2033    0.0000 C   0  0  0  0  0  0  0  0  0  0  0  0
   36.4254  -14.9925    0.0000 C   0  0  0  0  0  0  0  0  0  0  0  0
   34.3282  -16.2033    0.0000 C   0  0  0  0  0  0  0  0  0  0  0  0
   35.0273  -17.4142    0.0000 O   0  0  0  0  0  0  0  0  0  0  0  0
   35.0273  -14.9925    0.0000 C   0  0  0  0  0  0  0  0  0  0  0  0
   33.3849  -12.9584    0.0000 C   0  0  0  0  0  0  0  0  0  0  0  0
   32.1706  -13.6513    0.0000 C   0  0  0  0  0  0  0  0  0  0  0  0
   34.5923  -13.6636    0.0000 N   0  0  0  0  0  0  0  0  0  0  0  0
   36.8607  -13.6636    0.0000 N   0  0  0  0  0  0  0  0  0  0  0  0
   35.7264  -12.8387    0.0000 C   0  0  0  0  0  0  0  0  0  0  0  0
   30.9657  -12.9436    0.0000 C   0  0  0  0  0  0  0  0  0  0  0  0
   29.7513  -13.6365    0.0000 C   0  0  0  0  0  0  0  0  0  0  0  0
   29.7441  -15.0346    0.0000 C   0  0  0  0  0  0  0  0  0  0  0  0
   30.9515  -15.7398    0.0000 C   0  0  0  0  0  0  0  0  0  0  0  0
   32.1659  -15.0469    0.0000 C   0  0  0  0  0  0  0  0  0  0  0  0
   28.5299  -15.7275    0.0000 C   0  0  0  0  0  0  0  0  0  0  0  0
   27.3266  -15.0171    0.0000 C   0  0  0  0  0  0  0  0  0  0  0  0
   26.1123  -15.7102    0.0000 C   0  0  0  0  0  0  0  0  0  0  0  0
   26.1051  -17.1083    0.0000 C   0  0  0  0  0  0  0  0  0  0  0  0
   27.3125  -17.8134    0.0000 C   0  0  0  0  0  0  0  0  0  0  0  0
   28.5269  -17.1204    0.0000 C   0  0  0  0  0  0  0  0  0  0  0  0
   27.2672  -13.6190    0.0000 C   0  0  0  0  0  0  0  0  0  0  0  0
   28.4069  -12.8028    0.0000 N   0  0  0  0  0  0  0  0  0  0  0  0
   27.9847  -11.4699    0.0000 N   0  0  0  0  0  0  0  0  0  0  0  0
   26.5867  -11.4598    0.0000 N   0  0  0  0  0  0  0  0  0  0  0  0
   26.1447  -12.7860    0.0000 N   0  0  0  0  0  0  0  0  0  0  0  0
   34.3282  -18.6250    0.0000 C   0  0  0  0  0  0  0  0  0  0  0  0
   35.8253  -23.6158    0.0000 O   0  0  0  0  0  0  0  0  0  0  0  0
   32.9301  -16.2033    0.0000 O   0  0  0  0  0  0  0  0  0  0  0  0
   35.7264  -11.4406    0.0000 C   0  0  0  0  0  0  0  0  0  0  0  0
   34.5155  -10.7415    0.0000 C   0  0  0  0  0  0  0  0  0  0  0  0
   33.3046  -11.4406    0.0000 C   0  0  0  0  0  0  0  0  0  0  0  0
   37.8245  -17.4158    0.0000 C   0  0  0  0  0  0  0  0  0  0  0  0
   38.3324  -15.5058    0.0000 C   0  0  0  0  0  0  0  0  0  0  0  0
   35.9087  -16.6254    0.0000 O   0  0  0  0  0  0  0  0  0  0  0  0
   22.4791  -15.9596    0.0000 C   0  0  0  0  0  0  0  0  0  0  0  0
   22.4731  -17.3165    0.0000 C   0  0  0  0  0  0  0  0  0  0  0  0
   23.6605  -15.2870    0.0000 C   0  0  0  0  0  0  0  0  0  0  0  0
   21.3034  -15.2811    0.0000 S   0  0  0  0  0  0  0  0  0  0  0  0
   23.6430  -18.0010    0.0000 C   0  0  0  0  0  0  0  0  0  0  0  0
   21.3034  -17.9950    0.0000 N   0  0  0  0  0  0  0  0  0  0  0  0
   24.8304  -15.9713    0.0000 C   0  0  0  0  0  0  0  0  0  0  0  0
   20.1278  -15.9596    0.0000 N   0  0  0  0  0  0  0  0  0  0  0  0
   19.9933  -14.4564    0.0000 O   0  0  0  0  0  0  0  0  0  0  0  0
   22.5376  -14.4564    0.0000 O   0  0  0  0  0  0  0  0  0  0  0  0
   24.8244  -17.3282    0.0000 C   0  0  0  0  0  0  0  0  0  0  0  0
   20.1278  -17.3165    0.0000 C   0  0  0  0  0  0  0  0  0  0  0  0
   26.0118  -15.2987    0.0000 S   0  0  0  0  0  0  0  0  0  0  0  0
   26.0003  -18.0127    0.0000 Cl  0  0  0  0  0  0  0  0  0  0  0  0
   27.2636  -14.4623    0.0000 N   0  0  0  0  0  0  0  0  0  0  0  0
   27.1349  -16.3164    0.0000 O   0  0  0  0  0  0  0  0  0  0  0  0
   24.9357  -14.2516    0.0000 O   0  0  0  0  0  0  0  0  0  0  0  0
 17 18  2  0
 18 19  1  0
 19 20  2  0
 20 21  1  0
 21 13  2  0
  9 11  1  0
 19 22  1  0
  2  3  2  0
 12 13  1  0
  1  2  1  0
 12 14  1  0
 22 23  1  0
 23 24  2  0
 24 25  1  0
 25 26  2  0
 26 27  1  0
 27 22  2  0
  7  8  1  0
 23 28  1  0
  3  4  1  0
  8 15  1  0
 15 16  2  0
 16 14  1  0
 28 29  2  0
 29 30  1  0
 30 31  2  0
 31 32  1  0
 32 28  1  0
 14 11  1  0
 10 33  1  0
 33  3  1  0
 11  8  2  0
  4  5  1  0
  5 34  2  0
  5  6  1  0
  9 35  2  0
  9 10  1  0
 16 36  1  0
  6  2  1  0
 36 37  1  0
 13 17  1  0
 37 38  1  0
  7 39  1  0
  7 40  1  0
  7 41  1  0
 42 43  1  0
 42 44  2  0
 42 45  1  0
 43 46  2  0
 43 47  1  0
 44 48  1  0
 45 49  1  0
 45 50  2  0
 45 51  2  0
 46 52  1  0
 47 53  1  0
 48 54  1  0
 52 55  1  0
 54 56  1  0
 54 57  2  0
 54 58  2  0
 48 52  2  0
 49 53  1  0
M  END
