 
     RDKit          2D

 40 40  0  0  0  0  0  0  0  0999 V2000
   24.1848  -17.2082    0.0000 C   0  0  0  0  0  0  0  0  0  0  0  0
   24.1848  -18.6318    0.0000 C   0  0  0  0  0  0  0  0  0  0  0  0
   25.3867  -16.5023    0.0000 C   0  0  0  0  0  0  0  0  0  0  0  0
   22.8837  -16.7764    0.0000 N   0  0  0  0  0  0  0  0  0  0  0  0
   25.3867  -19.3144    0.0000 N   0  0  0  0  0  0  0  0  0  0  0  0
   22.8837  -19.0636    0.0000 N   0  0  0  0  0  0  0  0  0  0  0  0
   26.6061  -17.2374    0.0000 N   0  0  0  0  0  0  0  0  0  0  0  0
   25.3867  -15.1253    0.0000 O   0  0  0  0  0  0  0  0  0  0  0  0
   22.0669  -17.9317    0.0000 C   0  0  0  0  0  0  0  0  0  0  0  0
   26.6061  -18.5794    0.0000 C   0  0  0  0  0  0  0  0  0  0  0  0
   25.3867  -20.7440    0.0000 C   0  0  0  0  0  0  0  0  0  0  0  0
   27.8547  -16.5606    0.0000 C   0  0  0  0  0  0  0  0  0  0  0  0
   27.8547  -19.2794    0.0000 O   0  0  0  0  0  0  0  0  0  0  0  0
   24.1848  -17.2082    0.0000 C   0  0  0  0  0  0  0  0  0  0  0  0
   24.1848  -18.6318    0.0000 C   0  0  0  0  0  0  0  0  0  0  0  0
   25.3867  -16.5023    0.0000 C   0  0  0  0  0  0  0  0  0  0  0  0
   22.8837  -16.7764    0.0000 N   0  0  0  0  0  0  0  0  0  0  0  0
   25.3867  -19.3144    0.0000 N   0  0  0  0  0  0  0  0  0  0  0  0
   22.8837  -19.0636    0.0000 N   0  0  0  0  0  0  0  0  0  0  0  0
   26.6061  -17.2374    0.0000 N   0  0  0  0  0  0  0  0  0  0  0  0
   25.3867  -15.1253    0.0000 O   0  0  0  0  0  0  0  0  0  0  0  0
   22.0669  -17.9317    0.0000 C   0  0  0  0  0  0  0  0  0  0  0  0
   26.6061  -18.5794    0.0000 C   0  0  0  0  0  0  0  0  0  0  0  0
   25.3867  -20.7440    0.0000 C   0  0  0  0  0  0  0  0  0  0  0  0
   27.8547  -16.5606    0.0000 C   0  0  0  0  0  0  0  0  0  0  0  0
   27.8547  -19.2794    0.0000 O   0  0  0  0  0  0  0  0  0  0  0  0
   31.7800  -18.0600    0.0000 O   0  0  0  0  0  0  0  0  0  0  0  0
   25.9710  -13.6042    0.0000 C   0  0  0  0  0  0  0  0  0  0  0  0
   25.9710  -15.0043    0.0000 C   0  0  0  0  0  0  0  0  0  0  0  0
   27.1844  -12.9041    0.0000 O   0  0  0  0  0  0  0  0  0  0  0  0
   24.7576  -12.9041    0.0000 C   0  0  0  0  0  0  0  0  0  0  0  0
   27.1844  -15.7044    0.0000 C   0  0  0  0  0  0  0  0  0  0  0  0
   24.7576  -15.7044    0.0000 O   0  0  0  0  0  0  0  0  0  0  0  0
   28.3979  -13.6042    0.0000 C   0  0  0  0  0  0  0  0  0  0  0  0
   23.6841  -13.7909    0.0000 O   0  0  0  0  0  0  0  0  0  0  0  0
   28.3979  -15.0043    0.0000 C   0  0  0  0  0  0  0  0  0  0  0  0
   27.1844  -17.1045    0.0000 O   0  0  0  0  0  0  0  0  0  0  0  0
   29.6113  -12.9041    0.0000 O   0  0  0  0  0  0  0  0  0  0  0  0
   29.6113  -15.7044    0.0000 O   0  0  0  0  0  0  0  0  0  0  0  0
   33.6483  -14.5377    0.0000 O   0  0  0  0  0  0  0  0  0  0  0  0
  1  2  2  0
  1  3  1  0
  1  4  1  0
  2  5  1  0
  2  6  1  0
  3  7  1  0
  3  8  2  0
  4  9  1  0
  5 10  1  0
  5 11  1  0
  7 12  1  0
 10 13  2  0
  6  9  2  0
  7 10  1  0
 14 15  2  0
 14 16  1  0
 14 17  1  0
 15 18  1  0
 15 19  1  0
 16 20  1  0
 16 21  2  0
 17 22  1  0
 18 23  1  0
 18 24  1  0
 20 25  1  0
 23 26  2  0
 19 22  2  0
 20 23  1  0
 28 29  1  0
 28 30  1  0
 28 31  1  1
 29 32  1  0
 29 33  1  6
 30 34  1  0
 31 35  1  0
 32 36  1  0
 32 37  1  1
 34 38  1  6
 36 39  1  6
 34 36  1  0
M  END
