 
 
 
 33 37  0  0  1  0  0  0  0  0999 V2000
   12.5300  -16.3800    0.0000 C   0  0  0  0  0  0  0  0  0  0  0  0
   12.5300  -17.7800    0.0000 N   0  0  0  0  0  0  0  0  0  0  0  0
   13.7200  -18.4800    0.0000 C   0  0  0  0  0  0  0  0  0  0  0  0
   14.9800  -17.7800    0.0000 C   0  0  0  0  0  0  0  0  0  0  0  0
   14.9800  -16.3800    0.0000 C   0  0  0  0  0  0  0  0  0  0  0  0
   13.7200  -15.6800    0.0000 N   0  0  0  0  0  0  0  0  0  0  0  0
   13.7200  -19.8800    0.0000 N   0  0  0  0  0  0  0  0  0  0  0  0
   16.3100  -18.2000    0.0000 C   0  0  0  0  0  0  0  0  0  0  0  0
   17.0800  -17.0800    0.0000 N   0  0  0  0  0  0  0  0  0  0  0  0
   16.3100  -15.9600    0.0000 N   0  0  0  0  0  0  0  0  0  0  0  0
   16.8000  -14.6300    0.0000 C   0  0  0  0  0  0  0  0  0  0  0  0
   19.1100  -23.0300    0.0000 O   0  0  0  0  0  0  0  0  0  0  0  0
   18.4100  -21.8400    0.0000 C   0  0  0  0  0  0  0  0  0  0  0  0
   19.1100  -20.6500    0.0000 C   0  0  0  0  0  0  0  0  0  0  0  0
   18.4100  -19.3900    0.0000 C   0  0  0  0  0  0  0  0  0  0  0  0
   17.0100  -19.3900    0.0000 C   0  0  0  0  0  0  0  0  0  0  0  0
   16.3100  -20.5800    0.0000 C   0  0  0  0  0  0  0  0  0  0  0  0
   17.0100  -21.8400    0.0000 C   0  0  0  0  0  0  0  0  0  0  0  0
   20.5100  -23.0300    0.0000 C   0  0  0  0  0  0  0  0  0  0  0  0
   21.2100  -24.2200    0.0000 C   0  0  0  0  0  0  0  0  0  0  0  0
   22.6100  -24.2200    0.0000 C   0  0  0  0  0  0  0  0  0  0  0  0
   23.3100  -23.0300    0.0000 C   0  0  0  0  0  0  0  0  0  0  0  0
   22.6100  -21.7700    0.0000 C   0  0  0  0  0  0  0  0  0  0  0  0
   21.2100  -21.7700    0.0000 C   0  0  0  0  0  0  0  0  0  0  0  0
   18.2000  -14.6300    0.0000 C   0  0  0  0  0  0  0  0  0  0  0  0
   18.9000  -13.3700    0.0000 N   0  0  0  0  0  0  0  0  0  0  0  0
   18.2000  -12.1800    0.0000 C   0  0  0  0  0  0  0  0  0  0  0  0
   16.8000  -12.1800    0.0000 C   0  0  0  0  0  0  0  0  0  0  0  0
   16.1000  -13.3700    0.0000 C   0  0  0  0  0  0  0  0  0  0  0  0
   20.3000  -13.3700    0.0000 C   0  0  0  0  0  0  0  0  0  0  0  0
   20.9300  -12.1100    0.0000 O   0  0  0  0  0  0  0  0  0  0  0  0
   21.0000  -14.5600    0.0000 C   0  0  0  0  0  0  0  0  0  0  0  0
   22.4000  -14.5600    0.0000 C   0  0  0  0  0  0  0  0  0  0  0  0
  1  2  2  0     0  0
  2  3  1  0     0  0
  3  4  2  0     0  0
  4  5  1  0     0  0
  5  6  2  0     0  0
  1  6  1  0     0  0
  3  7  1  0     0  0
  4  8  1  0     0  0
  8  9  2  0     0  0
  9 10  1  0     0  0
  5 10  1  0     0  0
 11 10  1  6     0  0
 12 13  1  0     0  0
 13 14  2  0     0  0
 14 15  1  0     0  0
 15 16  2  0     0  0
 16 17  1  0     0  0
 17 18  2  0     0  0
 13 18  1  0     0  0
 12 19  1  0     0  0
 19 20  2  0     0  0
 20 21  1  0     0  0
 21 22  2  0     0  0
 22 23  1  0     0  0
 23 24  2  0     0  0
 19 24  1  0     0  0
 16  8  1  0     0  0
 11 25  1  0     0  0
 25 26  1  0     0  0
 26 27  1  0     0  0
 27 28  1  0     0  0
 28 29  1  0     0  0
 11 29  1  0     0  0
 26 30  1  0     0  0
 30 31  2  0     0  0
 30 32  1  0     0  0
 32 33  2  0     0  0
M  END
