 
     RDKit          2D

 97100  0  0  1  0  0  0  0  0999 V2000
   19.2474  -18.6526    0.0000 C   0  0  0  0  0  0  0  0  0  0  0  0
   18.0208  -17.9416    0.0000 C   0  0  0  0  0  0  0  0  0  0  0  0
   19.2415  -20.0690    0.0000 C   0  0  0  0  0  0  0  0  0  0  0  0
   20.4741  -17.9476    0.0000 C   0  0  0  0  0  0  0  0  0  0  0  0
   18.0208  -16.5254    0.0000 O   0  0  0  0  0  0  0  0  0  0  0  0
   16.7882  -18.6526    0.0000 C   0  0  0  0  0  0  0  0  0  0  0  0
   20.4622  -20.7862    0.0000 C   0  0  0  0  0  0  0  0  0  0  0  0
   18.0208  -20.7801    0.0000 C   0  0  0  0  0  0  0  0  0  0  0  0
   20.4801  -16.5312    0.0000 C   0  0  0  0  0  0  0  0  0  0  0  0
   21.7008  -18.6646    0.0000 C   0  0  0  0  0  0  0  0  0  0  0  0
   16.7941  -15.8142    0.0000 C   0  0  0  0  0  0  0  0  0  0  0  0
   16.7882  -20.0690    0.0000 C   0  0  0  0  0  0  0  0  0  0  0  0
   21.6950  -20.0809    0.0000 C   0  0  0  0  0  0  0  0  0  0  0  0
   15.5674  -16.5254    0.0000 C   0  0  0  0  0  0  0  0  0  0  0  0
   16.8001  -14.3977    0.0000 O   0  0  0  0  0  0  0  0  0  0  0  0
   15.5615  -20.7801    0.0000 C   0  0  0  0  0  0  0  0  0  0  0  0
   14.3406  -15.8142    0.0000 C   0  0  0  0  0  0  0  0  0  0  0  0
   16.0356  -17.4793    0.0000 C   0  0  0  0  0  0  0  0  0  0  0  0
   14.8248  -17.5491    0.0000 C   0  0  0  0  0  0  0  0  0  0  0  0
   13.1140  -16.5194    0.0000 C   0  0  0  0  0  0  0  0  0  0  0  0
   22.9237  -17.9663    0.0000 C   0  0  0  0  0  0  0  0  0  0  0  0
   21.6950  -15.8392    0.0000 C   0  0  0  0  0  0  0  0  0  0  0  0
   21.7333  -14.4397    0.0000 C   0  0  0  0  0  0  0  0  0  0  0  0
   22.9478  -13.7290    0.0000 O   0  0  0  0  0  0  0  0  0  0  0  0
   22.9396  -12.3297    0.0000 C   0  0  0  0  0  0  0  0  0  0  0  0
   21.7236  -11.6371    0.0000 C   0  0  0  0  0  0  0  0  0  0  0  0
   20.5558  -12.3479    0.0000 C   0  0  0  0  0  0  0  0  0  0  0  0
   20.5639  -13.7472    0.0000 C   0  0  0  0  0  0  0  0  0  0  0  0
   19.3289  -11.6357    0.0000 O   0  0  0  0  0  0  0  0  0  0  0  0
   24.1539  -11.6188    0.0000 O   0  0  0  0  0  0  0  0  0  0  0  0
    8.1200  -12.2500    0.0000 C   0  0  0  0  0  0  0  0  0  0  0  0
    8.1200  -13.6500    0.0000 C   0  0  0  0  0  0  0  0  0  0  0  0
    9.3324  -14.3500    0.0000 C   0  0  0  0  0  0  0  0  0  0  0  0
   10.5449  -13.6500    0.0000 C   0  0  0  0  0  0  0  0  0  0  0  0
   10.5449  -12.2500    0.0000 C   0  0  0  0  0  0  0  0  0  0  0  0
    9.3324  -11.5500    0.0000 C   0  0  0  0  0  0  0  0  0  0  0  0
    9.3324  -10.1502    0.0000 F   0  0  0  0  0  0  0  0  0  0  0  0
    9.3324  -15.7498    0.0000 F   0  0  0  0  0  0  0  0  0  0  0  0
    6.9076  -11.5500    0.0000 F   0  0  0  0  0  0  0  0  0  0  0  0
   11.7760  -14.3610    0.0000 C   0  0  0  0  0  0  0  0  0  0  0  0
   12.9812  -13.6653    0.0000 C   0  0  0  0  0  0  0  0  0  0  0  0
   14.1635  -14.3481    0.0000 C   0  0  0  0  0  0  0  0  0  0  0  0
   15.3575  -13.6588    0.0000 C   0  0  0  0  0  0  0  0  0  0  0  0
   16.5454  -14.3448    0.0000 N   0  0  0  0  0  0  0  0  0  0  0  0
   15.3577  -12.2503    0.0000 O   0  0  0  0  0  0  0  0  0  0  0  0
   12.9816  -12.2504    0.0000 N   0  0  0  0  0  0  0  0  0  0  0  0
   16.5454  -15.7498    0.0000 C   0  0  0  0  0  0  0  0  0  0  0  0
   17.7578  -16.4498    0.0000 C   0  0  0  0  0  0  0  0  0  0  0  0
   18.9703  -15.7498    0.0000 N   0  0  0  0  0  0  0  0  0  0  0  0
   18.9703  -14.3448    0.0000 C   0  0  0  0  0  0  0  0  0  0  0  0
   17.7579  -13.6448    0.0000 C   0  0  0  0  0  0  0  0  0  0  0  0
   20.3065  -16.1840    0.0000 C   0  0  0  0  0  0  0  0  0  0  0  0
   21.1324  -15.0474    0.0000 N   0  0  0  0  0  0  0  0  0  0  0  0
   20.3065  -13.9107    0.0000 N   0  0  0  0  0  0  0  0  0  0  0  0
   20.3065  -17.5840    0.0000 C   0  0  0  0  0  0  0  0  0  0  0  0
   20.3065  -18.9840    0.0000 F   0  0  0  0  0  0  0  0  0  0  0  0
   21.6999  -17.5839    0.0000 F   0  0  0  0  0  0  0  0  0  0  0  0
   18.9001  -17.5841    0.0000 F   0  0  0  0  0  0  0  0  0  0  0  0
   24.7529  -13.5722    0.0000 P   0  0  0  0  0  0  0  0  0  0  0  0
   26.0648  -13.5841    0.0000 O   0  0  0  0  0  0  0  0  0  0  0  0
   23.5239  -13.5841    0.0000 O   0  0  0  0  0  0  0  0  0  0  0  0
   24.8120  -15.0030    0.0000 O   0  0  0  0  0  0  0  0  0  0  0  0
   24.7882  -11.9456    0.0000 O   0  0  0  0  0  0  0  0  0  0  0  0
   25.6900  -17.7100    0.0000 O   0  0  0  0  0  0  0  0  0  0  0  0
   10.2430  -13.8910    0.0000 C   0  0  0  0  0  0  0  0  0  0  0  0
   10.2430  -15.2941    0.0000 C   0  0  0  0  0  0  0  0  0  0  0  0
   11.4357  -15.9957    0.0000 C   0  0  0  0  0  0  0  0  0  0  0  0
   12.6985  -15.2941    0.0000 C   0  0  0  0  0  0  0  0  0  0  0  0
   12.6985  -13.8910    0.0000 C   0  0  0  0  0  0  0  0  0  0  0  0
   11.4357  -13.1894    0.0000 C   0  0  0  0  0  0  0  0  0  0  0  0
   11.4357  -11.7863    0.0000 F   0  0  0  0  0  0  0  0  0  0  0  0
   11.4357  -17.3988    0.0000 F   0  0  0  0  0  0  0  0  0  0  0  0
    9.0503  -13.1894    0.0000 F   0  0  0  0  0  0  0  0  0  0  0  0
   13.8911  -15.9957    0.0000 C   0  0  0  0  0  0  0  0  0  0  0  0
   15.1539  -15.2941    0.0000 C   0  0  0  0  0  0  0  0  0  0  0  0
   16.2765  -15.9957    0.0000 C   0  0  0  0  0  0  0  0  0  0  0  0
   17.4691  -15.2941    0.0000 C   0  0  0  0  0  0  0  0  0  0  0  0
   18.6618  -15.9957    0.0000 N   0  0  0  0  0  0  0  0  0  0  0  0
   17.4691  -13.8910    0.0000 O   0  0  0  0  0  0  0  0  0  0  0  0
   15.1539  -13.8910    0.0000 N   0  0  0  0  0  0  0  0  0  0  0  0
   18.6618  -17.3988    0.0000 C   0  0  0  0  0  0  0  0  0  0  0  0
   19.9246  -18.1004    0.0000 C   0  0  0  0  0  0  0  0  0  0  0  0
   21.1172  -17.3988    0.0000 N   0  0  0  0  0  0  0  0  0  0  0  0
   21.1172  -15.9957    0.0000 C   0  0  0  0  0  0  0  0  0  0  0  0
   19.9246  -15.2941    0.0000 C   0  0  0  0  0  0  0  0  0  0  0  0
   22.4502  -17.8197    0.0000 C   0  0  0  0  0  0  0  0  0  0  0  0
   23.2921  -16.6972    0.0000 N   0  0  0  0  0  0  0  0  0  0  0  0
   22.4502  -15.5747    0.0000 N   0  0  0  0  0  0  0  0  0  0  0  0
   22.4502  -19.2229    0.0000 C   0  0  0  0  0  0  0  0  0  0  0  0
   22.4502  -20.6260    0.0000 F   0  0  0  0  0  0  0  0  0  0  0  0
   23.8533  -19.2229    0.0000 F   0  0  0  0  0  0  0  0  0  0  0  0
   21.0471  -19.2229    0.0000 F   0  0  0  0  0  0  0  0  0  0  0  0
   26.9402  -16.2039    0.0000 P   0  0  0  0  0  0  0  0  0  0  0  0
   28.2030  -16.2039    0.0000 O   0  0  0  0  0  0  0  0  0  0  0  0
   25.6774  -16.2039    0.0000 O   0  0  0  0  0  0  0  0  0  0  0  0
   27.0104  -17.6071    0.0000 O   0  0  0  0  0  0  0  0  0  0  0  0
   26.9402  -14.5904    0.0000 O   0  0  0  0  0  0  0  0  0  0  0  0
  1  2  1  0
  1  3  1  6
  1  4  1  0
  2  5  1  6
  2  6  1  0
  3  7  1  0
  3  8  2  0
  4  9  1  1
  4 10  1  0
  5 11  1  0
  6 12  1  0
  7 13  2  0
 11 14  1  0
 11 15  2  0
 12 16  1  6
 14 17  1  0
 14 18  1  0
 14 19  1  0
 17 20  1  0
  8 12  1  0
 10 13  1  0
 10 21  1  1
  9 22  1  0
 23 22  1  6
 23 24  1  0
 24 25  1  0
 25 26  1  0
 26 27  1  0
 27 28  1  0
 23 28  1  0
 27 29  1  1
 25 30  2  0
 31 32  2  0
 32 33  1  0
 33 34  2  0
 34 35  1  0
 35 36  2  0
 31 36  1  0
 36 37  1  0
 33 38  1  0
 31 39  1  0
 34 40  1  0
 40 41  1  0
 41 42  1  0
 42 43  1  0
 43 44  1  0
 43 45  2  0
 41 46  1  1
 44 47  1  0
 47 48  1  0
 48 49  1  0
 49 50  1  0
 50 51  1  0
 44 51  1  0
 49 52  1  0
 52 53  2  0
 53 54  1  0
 50 54  2  0
 52 55  1  0
 55 56  1  0
 55 57  1  0
 55 58  1  0
 59 60  1  0
 59 61  1  0
 59 62  1  0
 59 63  2  0
 65 66  2  0
 66 67  1  0
 67 68  2  0
 68 69  1  0
 69 70  2  0
 65 70  1  0
 70 71  1  0
 67 72  1  0
 65 73  1  0
 68 74  1  0
 74 75  1  0
 75 76  1  0
 76 77  1  0
 77 78  1  0
 77 79  2  0
 75 80  1  1
 78 81  1  0
 81 82  1  0
 82 83  1  0
 83 84  1  0
 84 85  1  0
 78 85  1  0
 83 86  1  0
 86 87  2  0
 87 88  1  0
 84 88  2  0
 86 89  1  0
 89 90  1  0
 89 91  1  0
 89 92  1  0
 93 94  1  0
 93 95  1  0
 93 96  1  0
 93 97  2  0
M  END
