 
     RDKit          2D

 57 62  0  0  0  0  0  0  0  0999 V2000
   25.2991  -19.3605    0.0000 C   0  0  0  0  0  0  0  0  0  0  0  0
   24.0935  -18.6673    0.0000 N   0  0  0  0  0  0  0  0  0  0  0  0
   26.5163  -18.6673    0.0000 N   0  0  0  0  0  0  0  0  0  0  0  0
   25.2991  -20.7640    0.0000 N   0  0  0  0  0  0  0  0  0  0  0  0
   22.8764  -19.3605    0.0000 C   0  0  0  0  0  0  0  0  0  0  0  0
   27.7278  -19.3605    0.0000 C   0  0  0  0  0  0  0  0  0  0  0  0
   26.5163  -17.2579    0.0000 C   0  0  0  0  0  0  0  0  0  0  0  0
   21.6649  -18.6673    0.0000 N   0  0  0  0  0  0  0  0  0  0  0  0
   22.8764  -20.7640    0.0000 N   0  0  0  0  0  0  0  0  0  0  0  0
   31.1135  -18.2132    0.0000 Cl  0  0  0  0  0  0  0  0  0  0  0  0
   23.5200  -27.9300    0.0000 C   0  0  0  0  0  0  0  0  0  0  0  0
   22.8200  -29.3300    0.0000 C   0  0  0  0  0  0  0  0  0  0  0  0
   22.8200  -30.5900    0.0000 C   0  0  0  0  0  0  0  0  0  0  0  0
   22.3300  -29.8900    0.0000 C   0  0  0  0  0  0  0  0  0  0  0  0
   24.6400  -29.8900    0.0000 C   0  0  0  0  0  0  0  0  0  0  0  0
   21.2800  -31.0100    0.0000 C   0  0  0  0  0  0  0  0  0  0  0  0
   23.9400  -31.5700    0.0000 C   0  0  0  0  0  0  0  0  0  0  0  0
   22.3300  -28.5600    0.0000 C   0  0  0  0  0  0  0  0  0  0  0  0
   23.5200  -30.5200    0.0000 C   0  0  0  0  0  0  0  0  0  0  0  0
   24.6400  -28.5600    0.0000 C   0  0  0  0  0  0  0  0  0  0  0  0
   23.5200  -26.5300    0.0000 C   0  0  0  0  0  0  0  0  0  0  0  0
   24.7100  -25.8300    0.0000 C   0  0  0  0  0  0  0  0  0  0  0  0
   22.3300  -25.8300    0.0000 N   0  0  0  0  0  0  0  0  0  0  0  0
   25.9000  -26.5300    0.0000 N   0  0  0  0  0  0  0  0  0  0  0  0
   24.7100  -24.4300    0.0000 O   0  0  0  0  0  0  0  0  0  0  0  0
   26.3900  -27.8600    0.0000 C   0  0  0  0  0  0  0  0  0  0  0  0
   27.7900  -27.8600    0.0000 C   0  0  0  0  0  0  0  0  0  0  0  0
   28.2100  -26.4600    0.0000 C   0  0  0  0  0  0  0  0  0  0  0  0
   27.0200  -25.6900    0.0000 C   0  0  0  0  0  0  0  0  0  0  0  0
   27.0200  -24.2900    0.0000 C   0  0  0  0  0  0  0  0  0  0  0  0
   27.0200  -22.8900    0.0000 N   0  0  0  0  0  0  0  0  0  0  0  0
   26.0400  -29.8900    0.0000 O   0  0  0  0  0  0  0  0  0  0  0  0
   27.0900  -29.0500    0.0000 C   0  0  0  0  0  0  0  0  0  0  0  0
   19.3200  -17.4300    0.0000 C   0  0  0  0  0  0  0  0  0  0  0  0
   18.6200  -18.8300    0.0000 C   0  0  0  0  0  0  0  0  0  0  0  0
   18.6200  -20.0900    0.0000 C   0  0  0  0  0  0  0  0  0  0  0  0
   18.1300  -19.3900    0.0000 C   0  0  0  0  0  0  0  0  0  0  0  0
   20.4400  -19.3900    0.0000 C   0  0  0  0  0  0  0  0  0  0  0  0
   17.0800  -20.5100    0.0000 C   0  0  0  0  0  0  0  0  0  0  0  0
   19.7400  -21.0700    0.0000 C   0  0  0  0  0  0  0  0  0  0  0  0
   18.1300  -18.0600    0.0000 C   0  0  0  0  0  0  0  0  0  0  0  0
   19.3200  -20.0200    0.0000 C   0  0  0  0  0  0  0  0  0  0  0  0
   20.4400  -18.0600    0.0000 C   0  0  0  0  0  0  0  0  0  0  0  0
   19.3200  -16.0300    0.0000 C   0  0  0  0  0  0  0  0  0  0  0  0
   20.5100  -15.4000    0.0000 C   0  0  0  0  0  0  0  0  0  0  0  0
   18.1300  -15.4000    0.0000 N   0  0  0  0  0  0  0  0  0  0  0  0
   21.7000  -16.0300    0.0000 N   0  0  0  0  0  0  0  0  0  0  0  0
   20.5100  -14.0000    0.0000 O   0  0  0  0  0  0  0  0  0  0  0  0
   22.1200  -17.3600    0.0000 C   0  0  0  0  0  0  0  0  0  0  0  0
   23.5200  -17.3600    0.0000 C   0  0  0  0  0  0  0  0  0  0  0  0
   23.9400  -15.9600    0.0000 C   0  0  0  0  0  0  0  0  0  0  0  0
   22.7500  -15.2600    0.0000 C   0  0  0  0  0  0  0  0  0  0  0  0
   22.7500  -13.8600    0.0000 C   0  0  0  0  0  0  0  0  0  0  0  0
   22.7500  -12.4600    0.0000 N   0  0  0  0  0  0  0  0  0  0  0  0
   21.7700  -19.3900    0.0000 O   0  0  0  0  0  0  0  0  0  0  0  0
   22.8200  -18.5500    0.0000 C   0  0  0  0  0  0  0  0  0  0  0  0
   27.2300  -19.8100    0.0000 Cl  0  0  0  0  0  0  0  0  0  0  0  0
  1  2  1  0
  1  3  1  0
  1  4  2  0
  2  5  1  0
  3  6  1  0
  3  7  1  0
  5  8  1  0
  5  9  2  0
 11 12  1  0
 12 13  1  0
 18 14  1  0
 14 19  1  0
 19 15  1  0
 15 20  1  0
 20 11  1  0
 11 18  1  0
 13 16  1  0
 13 17  1  0
 14 16  1  0
 15 17  1  0
 11 21  1  0
 21 22  1  0
 21 23  1  6
 22 24  1  0
 22 25  2  0
 24 26  1  0
 26 27  1  0
 27 28  1  6
 28 29  1  0
 24 29  1  0
 29 30  1  6
 30 31  3  0
 15 32  1  0
 27 33  1  0
 26 33  1  6
 34 35  1  0
 35 36  1  0
 41 37  1  0
 37 42  1  0
 42 38  1  0
 38 43  1  0
 43 34  1  0
 34 41  1  0
 36 39  1  0
 36 40  1  0
 37 39  1  0
 38 40  1  0
 34 44  1  0
 44 45  1  0
 44 46  1  6
 45 47  1  0
 45 48  2  0
 47 49  1  0
 49 50  1  0
 50 51  1  6
 51 52  1  0
 47 52  1  0
 52 53  1  6
 53 54  3  0
 38 55  1  0
 50 56  1  0
 49 56  1  6
M  END
