 
     RDKit          2D

 43 46  0  0  0  0  0  0  0  0999 V2000
   15.8134  -15.8294    0.0000 C   0  0  0  0  0  0  0  0  0  0  0  0
   14.9713  -14.7198    0.0000 C   0  0  0  0  0  0  0  0  0  0  0  0
   15.3065  -13.3630    0.0000 C   0  0  0  0  0  0  0  0  0  0  0  0
   16.5675  -12.7849    0.0000 N   0  0  0  0  0  0  0  0  0  0  0  0
   17.2192  -15.8546    0.0000 N   0  0  0  0  0  0  0  0  0  0  0  0
   17.8211  -13.4072    0.0000 C   0  0  0  0  0  0  0  0  0  0  0  0
   18.1076  -14.7759    0.0000 C   0  0  0  0  0  0  0  0  0  0  0  0
   14.2994  -12.3946    0.0000 C   0  0  0  0  0  0  0  0  0  0  0  0
   12.9574  -12.7827    0.0000 C   0  0  0  0  0  0  0  0  0  0  0  0
   12.6222  -14.1395    0.0000 C   0  0  0  0  0  0  0  0  0  0  0  0
   13.6293  -15.1076    0.0000 C   0  0  0  0  0  0  0  0  0  0  0  0
   20.1966  -12.9099    0.0000 C   0  0  0  0  0  0  0  0  0  0  0  0
   18.8652  -12.4728    0.0000 N   0  0  0  0  0  0  0  0  0  0  0  0
   11.2574  -14.5339    0.0000 Cl  0  0  0  0  0  0  0  0  0  0  0  0
   15.1789  -17.0791    0.0000 C   0  0  0  0  0  0  0  0  0  0  0  0
   13.7773  -17.0791    0.0000 C   0  0  0  0  0  0  0  0  0  0  0  0
   17.7925  -17.0976    0.0000 O   0  0  0  0  0  0  0  0  0  0  0  0
   13.0773  -18.2916    0.0000 C   0  0  0  0  0  0  0  0  0  0  0  0
   13.7773  -19.5040    0.0000 C   0  0  0  0  0  0  0  0  0  0  0  0
   15.1789  -19.5040    0.0000 C   0  0  0  0  0  0  0  0  0  0  0  0
   15.8789  -18.2916    0.0000 C   0  0  0  0  0  0  0  0  0  0  0  0
   22.3053  -18.3173    0.0000 C   0  0  0  0  0  0  0  0  0  0  0  0
   21.4609  -17.2047    0.0000 C   0  0  0  0  0  0  0  0  0  0  0  0
   21.7970  -15.8442    0.0000 C   0  0  0  0  0  0  0  0  0  0  0  0
   23.0615  -15.2645    0.0000 C   0  0  0  0  0  0  0  0  0  0  0  0
   23.7149  -18.3426    0.0000 C   0  0  0  0  0  0  0  0  0  0  0  0
   24.3184  -15.8885    0.0000 C   0  0  0  0  0  0  0  0  0  0  0  0
   24.6057  -17.2610    0.0000 C   0  0  0  0  0  0  0  0  0  0  0  0
   20.7871  -14.8731    0.0000 C   0  0  0  0  0  0  0  0  0  0  0  0
   19.4414  -15.2623    0.0000 C   0  0  0  0  0  0  0  0  0  0  0  0
   19.1053  -16.6228    0.0000 C   0  0  0  0  0  0  0  0  0  0  0  0
   20.1152  -17.5936    0.0000 C   0  0  0  0  0  0  0  0  0  0  0  0
   25.9405  -17.6993    0.0000 C   0  0  0  0  0  0  0  0  0  0  0  0
   26.9876  -16.7623    0.0000 C   0  0  0  0  0  0  0  0  0  0  0  0
   26.7005  -15.3898    0.0000 C   0  0  0  0  0  0  0  0  0  0  0  0
   25.3654  -14.9515    0.0000 C   0  0  0  0  0  0  0  0  0  0  0  0
   23.0132  -13.8858    0.0000 C   0  0  0  0  0  0  0  0  0  0  0  0
   24.2405  -13.2028    0.0000 C   0  0  0  0  0  0  0  0  0  0  0  0
   25.4121  -13.9042    0.0000 C   0  0  0  0  0  0  0  0  0  0  0  0
   26.6376  -13.2223    0.0000 N   0  0  0  0  0  0  0  0  0  0  0  0
   27.8757  -13.9629    0.0000 C   0  0  0  0  0  0  0  0  0  0  0  0
   26.6597  -11.8503    0.0000 C   0  0  0  0  0  0  0  0  0  0  0  0
   29.9627  -16.4829    0.0000 Cl  0  0  0  0  0  0  0  0  0  0  0  0
  3  4  1  0
  1  5  2  0
  4  6  2  0
  2  3  2  0
  5  7  1  0
  1  2  1  0
  6  7  1  0
  3  8  1  0
  8  9  2  0
  9 10  1  0
 10 11  2  0
  2 11  1  0
 12 13  1  0
  6 13  1  0
 10 14  1  0
  1 15  1  0
 15 16  2  0
  5 17  1  0
 16 18  1  0
 18 19  2  0
 19 20  1  0
 20 21  2  0
 15 21  1  0
 24 25  1  0
 22 26  1  0
 25 27  1  0
 23 24  2  0
 26 28  1  0
 22 23  1  0
 27 28  2  0
 24 29  1  0
 29 30  2  0
 30 31  1  0
 31 32  2  0
 23 32  1  0
 28 33  1  0
 33 34  2  0
 34 35  1  0
 35 36  2  0
 27 36  1  0
 25 37  2  3
 37 38  1  0
 38 39  1  0
 39 40  1  0
 40 41  1  0
 40 42  1  0
M  CHG  2   5   1  17  -1
M  END
