 
     RDKit          2D

 87 91  0  0  0  0  0  0  0  0999 V2000
   29.5695  -18.6304    0.0000 C   0  0  0  0  0  0  0  0  0  0  0  0
   28.3142  -19.3278    0.0000 C   0  0  0  0  0  0  0  0  0  0  0  0
   30.7550  -19.3278    0.0000 C   0  0  0  0  0  0  0  0  0  0  0  0
   29.5698  -17.2357    0.0000 S   0  0  0  0  0  0  0  0  0  0  0  0
   28.3142  -20.6528    0.0000 C   0  0  0  0  0  0  0  0  0  0  0  0
   30.7550  -20.6528    0.0000 C   0  0  0  0  0  0  0  0  0  0  0  0
   29.5698  -15.8409    0.0000 O   0  0  0  0  0  0  0  0  0  0  0  0
   28.1750  -17.2357    0.0000 O   0  0  0  0  0  0  0  0  0  0  0  0
   30.9645  -17.2357    0.0000 O   0  0  0  0  0  0  0  0  0  0  0  0
   29.5695  -21.3502    0.0000 C   0  0  0  0  0  0  0  0  0  0  0  0
   19.3368  -16.0762    0.0000 C   0  0  0  0  0  0  0  0  0  0  0  0
   20.5198  -15.3803    0.0000 C   0  0  0  0  0  0  0  0  0  0  0  0
   18.1539  -15.3803    0.0000 C   0  0  0  0  0  0  0  0  0  0  0  0
   19.3368  -18.4421    0.0000 C   0  0  0  0  0  0  0  0  0  0  0  0
   20.5198  -13.9886    0.0000 C   0  0  0  0  0  0  0  0  0  0  0  0
   21.7028  -16.0762    0.0000 C   0  0  0  0  0  0  0  0  0  0  0  0
   18.1539  -13.9886    0.0000 C   0  0  0  0  0  0  0  0  0  0  0  0
   16.9709  -16.0066    0.0000 C   0  0  0  0  0  0  0  0  0  0  0  0
   20.5198  -19.1380    0.0000 C   0  0  0  0  0  0  0  0  0  0  0  0
   18.1539  -19.1380    0.0000 C   0  0  0  0  0  0  0  0  0  0  0  0
   19.3368  -13.2927    0.0000 N   0  0  0  0  0  0  0  0  0  0  0  0
   21.7028  -13.2927    0.0000 C   0  0  0  0  0  0  0  0  0  0  0  0
   22.8858  -15.3803    0.0000 O   0  0  0  0  0  0  0  0  0  0  0  0
   21.7028  -17.3983    0.0000 O   0  0  0  0  0  0  0  0  0  0  0  0
   16.9709  -13.2927    0.0000 C   0  0  0  0  0  0  0  0  0  0  0  0
   15.7879  -15.3803    0.0000 O   0  0  0  0  0  0  0  0  0  0  0  0
   16.9709  -17.3983    0.0000 O   0  0  0  0  0  0  0  0  0  0  0  0
   20.5198  -20.4601    0.0000 C   0  0  0  0  0  0  0  0  0  0  0  0
   21.7028  -18.4421    0.0000 Cl  0  0  0  0  0  0  0  0  0  0  0  0
   18.1539  -20.4601    0.0000 C   0  0  0  0  0  0  0  0  0  0  0  0
   22.8858  -13.9886    0.0000 O   0  0  0  0  0  0  0  0  0  0  0  0
   24.0687  -16.0762    0.0000 C   0  0  0  0  0  0  0  0  0  0  0  0
   14.6049  -16.0066    0.0000 C   0  0  0  0  0  0  0  0  0  0  0  0
   19.3368  -21.1560    0.0000 C   0  0  0  0  0  0  0  0  0  0  0  0
   24.0687  -13.2927    0.0000 C   0  0  0  0  0  0  0  0  0  0  0  0
   25.2517  -15.3803    0.0000 C   0  0  0  0  0  0  0  0  0  0  0  0
   25.2517  -13.9886    0.0000 C   0  0  0  0  0  0  0  0  0  0  0  0
   26.4347  -13.2927    0.0000 N   0  0  0  0  0  0  0  0  0  0  0  0
   22.4791  -15.9596    0.0000 C   0  0  0  0  0  0  0  0  0  0  0  0
   22.4731  -17.3165    0.0000 C   0  0  0  0  0  0  0  0  0  0  0  0
   23.6605  -15.2870    0.0000 C   0  0  0  0  0  0  0  0  0  0  0  0
   21.3034  -15.2811    0.0000 S   0  0  0  0  0  0  0  0  0  0  0  0
   23.6430  -18.0010    0.0000 C   0  0  0  0  0  0  0  0  0  0  0  0
   21.3034  -17.9950    0.0000 N   0  0  0  0  0  0  0  0  0  0  0  0
   24.8304  -15.9713    0.0000 C   0  0  0  0  0  0  0  0  0  0  0  0
   20.1278  -15.9596    0.0000 N   0  0  0  0  0  0  0  0  0  0  0  0
   19.9933  -14.4564    0.0000 O   0  0  0  0  0  0  0  0  0  0  0  0
   22.5376  -14.4564    0.0000 O   0  0  0  0  0  0  0  0  0  0  0  0
   24.8244  -17.3282    0.0000 C   0  0  0  0  0  0  0  0  0  0  0  0
   20.1278  -17.3165    0.0000 C   0  0  0  0  0  0  0  0  0  0  0  0
   26.0118  -15.2987    0.0000 S   0  0  0  0  0  0  0  0  0  0  0  0
   26.0003  -18.0127    0.0000 Cl  0  0  0  0  0  0  0  0  0  0  0  0
   27.2636  -14.4623    0.0000 N   0  0  0  0  0  0  0  0  0  0  0  0
   27.1349  -16.3164    0.0000 O   0  0  0  0  0  0  0  0  0  0  0  0
   24.9357  -14.2516    0.0000 O   0  0  0  0  0  0  0  0  0  0  0  0
   19.4226  -22.2154    0.0000 C   0  0  0  0  0  0  0  0  0  0  0  0
   19.4226  -23.6234    0.0000 C   0  0  0  0  0  0  0  0  0  0  0  0
   20.6194  -24.3274    0.0000 C   0  0  0  0  0  0  0  0  0  0  0  0
   21.8865  -23.6234    0.0000 C   0  0  0  0  0  0  0  0  0  0  0  0
   21.8865  -22.2154    0.0000 C   0  0  0  0  0  0  0  0  0  0  0  0
   20.6194  -21.5115    0.0000 C   0  0  0  0  0  0  0  0  0  0  0  0
   23.0833  -21.5115    0.0000 C   0  0  0  0  0  0  0  0  0  0  0  0
   24.2801  -22.2154    0.0000 C   0  0  0  0  0  0  0  0  0  0  0  0
   25.5472  -21.5115    0.0000 C   0  0  0  0  0  0  0  0  0  0  0  0
   25.5472  -20.1035    0.0000 C   0  0  0  0  0  0  0  0  0  0  0  0
   24.3504  -19.3995    0.0000 C   0  0  0  0  0  0  0  0  0  0  0  0
   23.0833  -20.1035    0.0000 C   0  0  0  0  0  0  0  0  0  0  0  0
   20.6194  -20.1035    0.0000 C   0  0  0  0  0  0  0  0  0  0  0  0
   21.7457  -19.2587    0.0000 N   0  0  0  0  0  0  0  0  0  0  0  0
   21.3233  -17.9916    0.0000 N   0  0  0  0  0  0  0  0  0  0  0  0
   19.9154  -17.9916    0.0000 N   0  0  0  0  0  0  0  0  0  0  0  0
   19.4930  -19.2587    0.0000 N   0  0  0  0  0  0  0  0  0  0  0  0
   26.7440  -19.3995    0.0000 C   0  0  0  0  0  0  0  0  0  0  0  0
   26.7440  -17.9916    0.0000 N   0  0  0  0  0  0  0  0  0  0  0  0
   27.9407  -17.2876    0.0000 C   0  0  0  0  0  0  0  0  0  0  0  0
   25.5472  -17.2876    0.0000 C   0  0  0  0  0  0  0  0  0  0  0  0
   24.3504  -17.9916    0.0000 O   0  0  0  0  0  0  0  0  0  0  0  0
   25.5472  -15.8797    0.0000 C   0  0  0  0  0  0  0  0  0  0  0  0
   24.3504  -15.1757    0.0000 C   0  0  0  0  0  0  0  0  0  0  0  0
   24.3504  -13.7677    0.0000 C   0  0  0  0  0  0  0  0  0  0  0  0
   23.1537  -13.0637    0.0000 C   0  0  0  0  0  0  0  0  0  0  0  0
   29.1375  -17.9916    0.0000 C   0  0  0  0  0  0  0  0  0  0  0  0
   30.3343  -17.2876    0.0000 O   0  0  0  0  0  0  0  0  0  0  0  0
   29.1375  -19.3995    0.0000 O   0  0  0  0  0  0  0  0  0  0  0  0
   27.9407  -15.8797    0.0000 C   0  0  0  0  0  0  0  0  0  0  0  0
   26.7440  -15.1757    0.0000 C   0  0  0  0  0  0  0  0  0  0  0  0
   29.1375  -15.1757    0.0000 C   0  0  0  0  0  0  0  0  0  0  0  0
  1  2  2  0
  1  3  1  0
  1  4  1  0
  2  5  1  0
  3  6  2  0
  4  7  1  0
  4  8  2  0
  4  9  2  0
  5 10  2  0
  6 10  1  0
 11 12  1  0
 11 13  1  0
 11 14  1  0
 12 15  2  0
 12 16  1  0
 13 17  2  0
 13 18  1  0
 14 19  2  0
 14 20  1  0
 15 21  1  0
 15 22  1  0
 16 23  1  0
 16 24  2  0
 17 25  1  0
 18 26  1  0
 18 27  2  0
 19 28  1  0
 19 29  1  0
 20 30  2  0
 22 31  1  0
 23 32  1  0
 26 33  1  0
 28 34  2  0
 31 35  1  0
 32 36  1  0
 35 37  1  0
 37 38  1  0
 17 21  1  0
 30 34  1  0
 39 40  1  0
 39 41  2  0
 39 42  1  0
 40 43  2  0
 40 44  1  0
 41 45  1  0
 42 46  1  0
 42 47  2  0
 42 48  2  0
 43 49  1  0
 44 50  1  0
 45 51  1  0
 49 52  1  0
 51 53  1  0
 51 54  2  0
 51 55  2  0
 45 49  2  0
 46 50  1  0
 56 57  2  0
 57 58  1  0
 58 59  2  0
 59 60  1  0
 60 61  2  0
 56 61  1  0
 60 62  1  0
 62 63  2  0
 63 64  1  0
 64 65  2  0
 65 66  1  0
 66 67  2  0
 62 67  1  0
 61 68  1  0
 68 69  1  0
 69 70  1  0
 70 71  2  0
 71 72  1  0
 68 72  2  0
 65 73  1  0
 73 74  1  0
 74 75  1  0
 74 76  1  0
 76 77  2  0
 76 78  1  0
 78 79  1  0
 79 80  1  0
 80 81  1  0
 75 82  1  0
 82 83  2  0
 82 84  1  0
 75 85  1  1
 85 86  1  0
 85 87  1  0
M  END
