 
     RDKit          2D

 96102  0  0  0  0  0  0  0  0999 V2000
   37.1157  -18.9063    0.0000 C   0  0  0  0  0  0  0  0  0  0  0  0
   36.4167  -20.1172    0.0000 C   0  0  0  0  0  0  0  0  0  0  0  0
   35.0273  -20.1154    0.0000 C   0  0  0  0  0  0  0  0  0  0  0  0
   34.6625  -21.4576    0.0000 O   0  0  0  0  0  0  0  0  0  0  0  0
   35.8267  -22.2192    0.0000 C   0  0  0  0  0  0  0  0  0  0  0  0
   36.9105  -21.3475    0.0000 O   0  0  0  0  0  0  0  0  0  0  0  0
   37.1245  -16.2033    0.0000 C   0  0  0  0  0  0  0  0  0  0  0  0
   36.4254  -14.9925    0.0000 C   0  0  0  0  0  0  0  0  0  0  0  0
   34.3282  -16.2033    0.0000 C   0  0  0  0  0  0  0  0  0  0  0  0
   35.0273  -17.4142    0.0000 O   0  0  0  0  0  0  0  0  0  0  0  0
   35.0273  -14.9925    0.0000 C   0  0  0  0  0  0  0  0  0  0  0  0
   33.3849  -12.9584    0.0000 C   0  0  0  0  0  0  0  0  0  0  0  0
   32.1706  -13.6513    0.0000 C   0  0  0  0  0  0  0  0  0  0  0  0
   34.5923  -13.6636    0.0000 N   0  0  0  0  0  0  0  0  0  0  0  0
   36.8607  -13.6636    0.0000 N   0  0  0  0  0  0  0  0  0  0  0  0
   35.7264  -12.8387    0.0000 C   0  0  0  0  0  0  0  0  0  0  0  0
   30.9657  -12.9436    0.0000 C   0  0  0  0  0  0  0  0  0  0  0  0
   29.7513  -13.6365    0.0000 C   0  0  0  0  0  0  0  0  0  0  0  0
   29.7441  -15.0346    0.0000 C   0  0  0  0  0  0  0  0  0  0  0  0
   30.9515  -15.7398    0.0000 C   0  0  0  0  0  0  0  0  0  0  0  0
   32.1659  -15.0469    0.0000 C   0  0  0  0  0  0  0  0  0  0  0  0
   28.5299  -15.7275    0.0000 C   0  0  0  0  0  0  0  0  0  0  0  0
   27.3266  -15.0171    0.0000 C   0  0  0  0  0  0  0  0  0  0  0  0
   26.1123  -15.7102    0.0000 C   0  0  0  0  0  0  0  0  0  0  0  0
   26.1051  -17.1083    0.0000 C   0  0  0  0  0  0  0  0  0  0  0  0
   27.3125  -17.8134    0.0000 C   0  0  0  0  0  0  0  0  0  0  0  0
   28.5269  -17.1204    0.0000 C   0  0  0  0  0  0  0  0  0  0  0  0
   27.2672  -13.6190    0.0000 C   0  0  0  0  0  0  0  0  0  0  0  0
   28.4069  -12.8028    0.0000 N   0  0  0  0  0  0  0  0  0  0  0  0
   27.9847  -11.4699    0.0000 N   0  0  0  0  0  0  0  0  0  0  0  0
   26.5867  -11.4598    0.0000 N   0  0  0  0  0  0  0  0  0  0  0  0
   26.1447  -12.7860    0.0000 N   0  0  0  0  0  0  0  0  0  0  0  0
   34.3282  -18.6250    0.0000 C   0  0  0  0  0  0  0  0  0  0  0  0
   35.8253  -23.6158    0.0000 O   0  0  0  0  0  0  0  0  0  0  0  0
   32.9301  -16.2033    0.0000 O   0  0  0  0  0  0  0  0  0  0  0  0
   35.7264  -11.4406    0.0000 C   0  0  0  0  0  0  0  0  0  0  0  0
   34.5155  -10.7415    0.0000 C   0  0  0  0  0  0  0  0  0  0  0  0
   33.3046  -11.4406    0.0000 C   0  0  0  0  0  0  0  0  0  0  0  0
   37.8245  -17.4158    0.0000 C   0  0  0  0  0  0  0  0  0  0  0  0
   38.3324  -15.5058    0.0000 C   0  0  0  0  0  0  0  0  0  0  0  0
   35.9087  -16.6254    0.0000 O   0  0  0  0  0  0  0  0  0  0  0  0
   29.5695  -18.6304    0.0000 C   0  0  0  0  0  0  0  0  0  0  0  0
   28.3142  -19.3278    0.0000 C   0  0  0  0  0  0  0  0  0  0  0  0
   30.7550  -19.3278    0.0000 C   0  0  0  0  0  0  0  0  0  0  0  0
   29.5698  -17.2357    0.0000 S   0  0  0  0  0  0  0  0  0  0  0  0
   28.3142  -20.6528    0.0000 C   0  0  0  0  0  0  0  0  0  0  0  0
   30.7550  -20.6528    0.0000 C   0  0  0  0  0  0  0  0  0  0  0  0
   29.5698  -15.8409    0.0000 O   0  0  0  0  0  0  0  0  0  0  0  0
   28.1750  -17.2357    0.0000 O   0  0  0  0  0  0  0  0  0  0  0  0
   30.9645  -17.2357    0.0000 O   0  0  0  0  0  0  0  0  0  0  0  0
   29.5695  -21.3502    0.0000 C   0  0  0  0  0  0  0  0  0  0  0  0
   19.3368  -16.0762    0.0000 C   0  0  0  0  0  0  0  0  0  0  0  0
   20.5198  -15.3803    0.0000 C   0  0  0  0  0  0  0  0  0  0  0  0
   18.1539  -15.3803    0.0000 C   0  0  0  0  0  0  0  0  0  0  0  0
   19.3368  -18.4421    0.0000 C   0  0  0  0  0  0  0  0  0  0  0  0
   20.5198  -13.9886    0.0000 C   0  0  0  0  0  0  0  0  0  0  0  0
   21.7028  -16.0762    0.0000 C   0  0  0  0  0  0  0  0  0  0  0  0
   18.1539  -13.9886    0.0000 C   0  0  0  0  0  0  0  0  0  0  0  0
   16.9709  -16.0066    0.0000 C   0  0  0  0  0  0  0  0  0  0  0  0
   20.5198  -19.1380    0.0000 C   0  0  0  0  0  0  0  0  0  0  0  0
   18.1539  -19.1380    0.0000 C   0  0  0  0  0  0  0  0  0  0  0  0
   19.3368  -13.2927    0.0000 N   0  0  0  0  0  0  0  0  0  0  0  0
   21.7028  -13.2927    0.0000 C   0  0  0  0  0  0  0  0  0  0  0  0
   22.8858  -15.3803    0.0000 O   0  0  0  0  0  0  0  0  0  0  0  0
   21.7028  -17.3983    0.0000 O   0  0  0  0  0  0  0  0  0  0  0  0
   16.9709  -13.2927    0.0000 C   0  0  0  0  0  0  0  0  0  0  0  0
   15.7879  -15.3803    0.0000 O   0  0  0  0  0  0  0  0  0  0  0  0
   16.9709  -17.3983    0.0000 O   0  0  0  0  0  0  0  0  0  0  0  0
   20.5198  -20.4601    0.0000 C   0  0  0  0  0  0  0  0  0  0  0  0
   21.7028  -18.4421    0.0000 Cl  0  0  0  0  0  0  0  0  0  0  0  0
   18.1539  -20.4601    0.0000 C   0  0  0  0  0  0  0  0  0  0  0  0
   22.8858  -13.9886    0.0000 O   0  0  0  0  0  0  0  0  0  0  0  0
   24.0687  -16.0762    0.0000 C   0  0  0  0  0  0  0  0  0  0  0  0
   14.6049  -16.0066    0.0000 C   0  0  0  0  0  0  0  0  0  0  0  0
   19.3368  -21.1560    0.0000 C   0  0  0  0  0  0  0  0  0  0  0  0
   24.0687  -13.2927    0.0000 C   0  0  0  0  0  0  0  0  0  0  0  0
   25.2517  -15.3803    0.0000 C   0  0  0  0  0  0  0  0  0  0  0  0
   25.2517  -13.9886    0.0000 C   0  0  0  0  0  0  0  0  0  0  0  0
   26.4347  -13.2927    0.0000 N   0  0  0  0  0  0  0  0  0  0  0  0
   22.4791  -15.9596    0.0000 C   0  0  0  0  0  0  0  0  0  0  0  0
   22.4731  -17.3165    0.0000 C   0  0  0  0  0  0  0  0  0  0  0  0
   23.6605  -15.2870    0.0000 C   0  0  0  0  0  0  0  0  0  0  0  0
   21.3034  -15.2811    0.0000 S   0  0  0  0  0  0  0  0  0  0  0  0
   23.6430  -18.0010    0.0000 C   0  0  0  0  0  0  0  0  0  0  0  0
   21.3034  -17.9950    0.0000 N   0  0  0  0  0  0  0  0  0  0  0  0
   24.8304  -15.9713    0.0000 C   0  0  0  0  0  0  0  0  0  0  0  0
   20.1278  -15.9596    0.0000 N   0  0  0  0  0  0  0  0  0  0  0  0
   19.9933  -14.4564    0.0000 O   0  0  0  0  0  0  0  0  0  0  0  0
   22.5376  -14.4564    0.0000 O   0  0  0  0  0  0  0  0  0  0  0  0
   24.8244  -17.3282    0.0000 C   0  0  0  0  0  0  0  0  0  0  0  0
   20.1278  -17.3165    0.0000 C   0  0  0  0  0  0  0  0  0  0  0  0
   26.0118  -15.2987    0.0000 S   0  0  0  0  0  0  0  0  0  0  0  0
   26.0003  -18.0127    0.0000 Cl  0  0  0  0  0  0  0  0  0  0  0  0
   27.2636  -14.4623    0.0000 N   0  0  0  0  0  0  0  0  0  0  0  0
   27.1349  -16.3164    0.0000 O   0  0  0  0  0  0  0  0  0  0  0  0
   24.9357  -14.2516    0.0000 O   0  0  0  0  0  0  0  0  0  0  0  0
 17 18  2  0
 18 19  1  0
 19 20  2  0
 20 21  1  0
 21 13  2  0
  9 11  1  0
 19 22  1  0
  2  3  2  0
 12 13  1  0
  1  2  1  0
 12 14  1  0
 22 23  1  0
 23 24  2  0
 24 25  1  0
 25 26  2  0
 26 27  1  0
 27 22  2  0
  7  8  1  0
 23 28  1  0
  3  4  1  0
  8 15  1  0
 15 16  2  0
 16 14  1  0
 28 29  2  0
 29 30  1  0
 30 31  2  0
 31 32  1  0
 32 28  1  0
 14 11  1  0
 10 33  1  0
 33  3  1  0
 11  8  2  0
  4  5  1  0
  5 34  2  0
  5  6  1  0
  9 35  2  0
  9 10  1  0
 16 36  1  0
  6  2  1  0
 36 37  1  0
 13 17  1  0
 37 38  1  0
  7 39  1  0
  7 40  1  0
  7 41  1  0
 42 43  2  0
 42 44  1  0
 42 45  1  0
 43 46  1  0
 44 47  2  0
 45 48  1  0
 45 49  2  0
 45 50  2  0
 46 51  2  0
 47 51  1  0
 52 53  1  0
 52 54  1  0
 52 55  1  0
 53 56  2  0
 53 57  1  0
 54 58  2  0
 54 59  1  0
 55 60  2  0
 55 61  1  0
 56 62  1  0
 56 63  1  0
 57 64  1  0
 57 65  2  0
 58 66  1  0
 59 67  1  0
 59 68  2  0
 60 69  1  0
 60 70  1  0
 61 71  2  0
 63 72  1  0
 64 73  1  0
 67 74  1  0
 69 75  2  0
 72 76  1  0
 73 77  1  0
 76 78  1  0
 78 79  1  0
 58 62  1  0
 71 75  1  0
 80 81  1  0
 80 82  2  0
 80 83  1  0
 81 84  2  0
 81 85  1  0
 82 86  1  0
 83 87  1  0
 83 88  2  0
 83 89  2  0
 84 90  1  0
 85 91  1  0
 86 92  1  0
 90 93  1  0
 92 94  1  0
 92 95  2  0
 92 96  2  0
 86 90  2  0
 87 91  1  0
M  END
