 
     RDKit          2D

 52 54  0  0  0  0  0  0  0  0999 V2000
   30.8361  -23.7268    0.0000 S   0  0  0  0  0  0  0  0  0  0  0  0
   30.8361  -22.3207    0.0000 O   0  0  0  0  0  0  0  0  0  0  0  0
   30.8361  -25.1329    0.0000 O   0  0  0  0  0  0  0  0  0  0  0  0
   32.2422  -23.7268    0.0000 O   0  0  0  0  0  0  0  0  0  0  0  0
   29.4300  -23.7268    0.0000 C   0  0  0  0  0  0  0  0  0  0  0  0
   17.2200  -21.0700    0.0000 C   0  0  0  0  0  0  0  0  0  0  0  0
   17.2200  -22.4700    0.0000 C   0  0  0  0  0  0  0  0  0  0  0  0
   18.4100  -23.2400    0.0000 C   0  0  0  0  0  0  0  0  0  0  0  0
   19.6000  -22.4700    0.0000 C   0  0  0  0  0  0  0  0  0  0  0  0
   19.6000  -21.0700    0.0000 C   0  0  0  0  0  0  0  0  0  0  0  0
   18.4100  -20.3700    0.0000 C   0  0  0  0  0  0  0  0  0  0  0  0
   20.8600  -20.3700    0.0000 C   0  0  0  0  0  0  0  0  0  0  0  0
   22.0500  -21.0700    0.0000 N   0  0  0  0  0  0  0  0  0  0  0  0
   22.5400  -22.4000    0.0000 C   0  0  0  0  0  0  0  0  0  0  0  0
   23.9400  -22.4000    0.0000 C   0  0  0  0  0  0  0  0  0  0  0  0
   24.3600  -21.0700    0.0000 N   0  0  0  0  0  0  0  0  0  0  0  0
   23.2400  -20.2300    0.0000 C   0  0  0  0  0  0  0  0  0  0  0  0
   15.9600  -23.2400    0.0000 C   0  0  0  0  0  0  0  0  0  0  0  0
   14.7700  -22.5400    0.0000 O   0  0  0  0  0  0  0  0  0  0  0  0
   15.9600  -24.6400    0.0000 O   0  0  0  0  0  0  0  0  0  0  0  0
   23.2400  -18.8300    0.0000 C   0  0  0  0  0  0  0  0  0  0  0  0
   24.4300  -18.1300    0.0000 C   0  0  0  0  0  0  0  0  0  0  0  0
   25.6900  -18.8300    0.0000 C   0  0  0  0  0  0  0  0  0  0  0  0
   26.8800  -18.1300    0.0000 C   0  0  0  0  0  0  0  0  0  0  0  0
   21.8400  -23.6600    0.0000 C   0  0  0  0  0  0  0  0  0  0  0  0
   22.5400  -24.8500    0.0000 C   0  0  0  0  0  0  0  0  0  0  0  0
   23.9400  -24.8500    0.0000 C   0  0  0  0  0  0  0  0  0  0  0  0
   21.8400  -26.0400    0.0000 C   0  0  0  0  0  0  0  0  0  0  0  0
   20.4400  -26.0400    0.0000 O   0  0  0  0  0  0  0  0  0  0  0  0
   22.5400  -27.2300    0.0000 O   0  0  0  0  0  0  0  0  0  0  0  0
   24.6400  -26.0400    0.0000 C   0  0  0  0  0  0  0  0  0  0  0  0
   24.2900  -27.3700    0.0000 C   0  0  0  0  0  0  0  0  0  0  0  0
   25.4100  -28.1400    0.0000 C   0  0  0  0  0  0  0  0  0  0  0  0
   26.4600  -27.3000    0.0000 C   0  0  0  0  0  0  0  0  0  0  0  0
   26.0400  -25.9700    0.0000 S   0  0  0  0  0  0  0  0  0  0  0  0
   22.4791  -15.9596    0.0000 C   0  0  0  0  0  0  0  0  0  0  0  0
   22.4731  -17.3165    0.0000 C   0  0  0  0  0  0  0  0  0  0  0  0
   23.6605  -15.2870    0.0000 C   0  0  0  0  0  0  0  0  0  0  0  0
   21.3034  -15.2811    0.0000 S   0  0  0  0  0  0  0  0  0  0  0  0
   23.6430  -18.0010    0.0000 C   0  0  0  0  0  0  0  0  0  0  0  0
   21.3034  -17.9950    0.0000 N   0  0  0  0  0  0  0  0  0  0  0  0
   24.8304  -15.9713    0.0000 C   0  0  0  0  0  0  0  0  0  0  0  0
   20.1278  -15.9596    0.0000 N   0  0  0  0  0  0  0  0  0  0  0  0
   19.9933  -14.4564    0.0000 O   0  0  0  0  0  0  0  0  0  0  0  0
   22.5376  -14.4564    0.0000 O   0  0  0  0  0  0  0  0  0  0  0  0
   24.8244  -17.3282    0.0000 C   0  0  0  0  0  0  0  0  0  0  0  0
   20.1278  -17.3165    0.0000 C   0  0  0  0  0  0  0  0  0  0  0  0
   26.0118  -15.2987    0.0000 S   0  0  0  0  0  0  0  0  0  0  0  0
   26.0003  -18.0127    0.0000 Cl  0  0  0  0  0  0  0  0  0  0  0  0
   27.2636  -14.4623    0.0000 N   0  0  0  0  0  0  0  0  0  0  0  0
   27.1349  -16.3164    0.0000 O   0  0  0  0  0  0  0  0  0  0  0  0
   24.9357  -14.2516    0.0000 O   0  0  0  0  0  0  0  0  0  0  0  0
  1  2  2  0
  1  3  2  0
  1  4  1  0
  1  5  1  0
  6  7  2  0
  7  8  1  0
  8  9  2  0
  9 10  1  0
 10 11  2  0
  6 11  1  0
 10 12  1  0
 12 13  1  0
 13 14  1  0
 14 15  2  0
 15 16  1  0
 16 17  2  0
 13 17  1  0
  7 18  1  0
 18 19  1  0
 18 20  2  0
 17 21  1  0
 21 22  1  0
 22 23  1  0
 23 24  1  0
 14 25  1  0
 25 26  2  0
 26 27  1  0
 26 28  1  0
 28 29  1  0
 28 30  2  0
 27 31  1  0
 31 32  2  0
 32 33  1  0
 33 34  2  0
 34 35  1  0
 31 35  1  0
 36 37  1  0
 36 38  2  0
 36 39  1  0
 37 40  2  0
 37 41  1  0
 38 42  1  0
 39 43  1  0
 39 44  2  0
 39 45  2  0
 40 46  1  0
 41 47  1  0
 42 48  1  0
 46 49  1  0
 48 50  1  0
 48 51  2  0
 48 52  2  0
 42 46  2  0
 43 47  1  0
M  END
