 
     RDKit          2D

 46 51  0  0  1  0  0  0  0  0999 V2000
   28.2976  -16.1582    0.0000 C   0  0  0  0  0  0  0  0  0  0  0  0
   27.0958  -16.8292    0.0000 C   0  0  0  0  0  0  0  0  0  0  0  0
   29.4642  -16.8582    0.0000 C   0  0  0  0  0  0  0  0  0  0  0  0
   29.4059  -15.3591    0.0000 O   0  0  0  0  0  0  0  0  0  0  0  0
   27.1950  -15.3533    0.0000 C   0  0  0  0  0  0  0  0  0  0  0  0
   27.0784  -18.2059    0.0000 C   0  0  0  0  0  0  0  0  0  0  0  0
   25.9176  -16.1408    0.0000 C   0  0  0  0  0  0  0  0  0  0  0  0
   26.4017  -15.2890    0.0000 C   0  0  0  0  0  0  0  0  0  0  0  0
   29.4468  -18.2292    0.0000 C   0  0  0  0  0  0  0  0  0  0  0  0
   28.9917  -14.0524    0.0000 C   0  0  0  0  0  0  0  0  0  0  0  0
   27.6209  -14.0466    0.0000 C   0  0  0  0  0  0  0  0  0  0  0  0
   25.8942  -18.8825    0.0000 C   0  0  0  0  0  0  0  0  0  0  0  0
   24.7217  -16.8175    0.0000 C   0  0  0  0  0  0  0  0  0  0  0  0
   29.8026  -12.9499    0.0000 O   0  0  0  0  0  0  0  0  0  0  0  0
   24.7100  -18.1883    0.0000 C   0  0  0  0  0  0  0  0  0  0  0  0
   25.8942  -20.2533    0.0000 C   0  0  0  0  0  0  0  0  0  0  0  0
   23.5199  -18.8709    0.0000 C   0  0  0  0  0  0  0  0  0  0  0  0
   24.6983  -20.9417    0.0000 C   0  0  0  0  0  0  0  0  0  0  0  0
   27.0784  -20.9476    0.0000 S   0  0  0  0  0  0  0  0  0  0  0  0
   23.5142  -20.2417    0.0000 C   0  0  0  0  0  0  0  0  0  0  0  0
   22.3300  -18.1825    0.0000 C   0  0  0  0  0  0  0  0  0  0  0  0
   23.5082  -17.4942    0.0000 C   0  0  0  0  0  0  0  0  0  0  0  0
   28.2683  -20.2593    0.0000 C   0  0  0  0  0  0  0  0  0  0  0  0
   22.3300  -20.9359    0.0000 C   0  0  0  0  0  0  0  0  0  0  0  0
   21.1398  -18.8709    0.0000 C   0  0  0  0  0  0  0  0  0  0  0  0
   29.4525  -20.9476    0.0000 C   0  0  0  0  0  0  0  0  0  0  0  0
   28.2743  -18.8825    0.0000 O   0  0  0  0  0  0  0  0  0  0  0  0
   21.1398  -20.2417    0.0000 C   0  0  0  0  0  0  0  0  0  0  0  0
   19.9499  -20.9359    0.0000 O   0  0  0  0  0  0  0  0  0  0  0  0
   22.4791  -15.9596    0.0000 C   0  0  0  0  0  0  0  0  0  0  0  0
   22.4731  -17.3165    0.0000 C   0  0  0  0  0  0  0  0  0  0  0  0
   23.6605  -15.2870    0.0000 C   0  0  0  0  0  0  0  0  0  0  0  0
   21.3034  -15.2811    0.0000 S   0  0  0  0  0  0  0  0  0  0  0  0
   23.6430  -18.0010    0.0000 C   0  0  0  0  0  0  0  0  0  0  0  0
   21.3034  -17.9950    0.0000 N   0  0  0  0  0  0  0  0  0  0  0  0
   24.8304  -15.9713    0.0000 C   0  0  0  0  0  0  0  0  0  0  0  0
   20.1278  -15.9596    0.0000 N   0  0  0  0  0  0  0  0  0  0  0  0
   19.9933  -14.4564    0.0000 O   0  0  0  0  0  0  0  0  0  0  0  0
   22.5376  -14.4564    0.0000 O   0  0  0  0  0  0  0  0  0  0  0  0
   24.8244  -17.3282    0.0000 C   0  0  0  0  0  0  0  0  0  0  0  0
   20.1278  -17.3165    0.0000 C   0  0  0  0  0  0  0  0  0  0  0  0
   26.0118  -15.2987    0.0000 S   0  0  0  0  0  0  0  0  0  0  0  0
   26.0003  -18.0127    0.0000 Cl  0  0  0  0  0  0  0  0  0  0  0  0
   27.2636  -14.4623    0.0000 N   0  0  0  0  0  0  0  0  0  0  0  0
   27.1349  -16.3164    0.0000 O   0  0  0  0  0  0  0  0  0  0  0  0
   24.9357  -14.2516    0.0000 O   0  0  0  0  0  0  0  0  0  0  0  0
  1  2  1  0
  1  3  1  6
  1  4  1  0
  1  5  1  0
  2  6  1  0
  2  7  1  0
  2  8  1  1
  3  9  1  0
  4 10  1  0
  5 11  1  0
  6 12  1  0
  7 13  1  0
 10 14  2  0
 12 15  1  0
 12 16  1  6
 15 17  1  0
 16 18  1  0
 16 19  1  6
 17 20  1  0
 17 21  1  0
 17 22  1  1
 19 23  1  0
 20 24  2  0
 21 25  1  0
 23 26  1  0
 23 27  2  0
 24 28  1  0
 28 29  2  0
  6  9  1  1
 10 11  1  0
 15 13  1  1
 18 20  1  0
 25 28  1  0
 30 31  1  0
 30 32  2  0
 30 33  1  0
 31 34  2  0
 31 35  1  0
 32 36  1  0
 33 37  1  0
 33 38  2  0
 33 39  2  0
 34 40  1  0
 35 41  1  0
 36 42  1  0
 40 43  1  0
 42 44  1  0
 42 45  2  0
 42 46  2  0
 36 40  2  0
 37 41  1  0
M  END
