 
     RDKit          2D

 78 82  0  0  1  0  0  0  0  0999 V2000
   22.1075  -19.5906    0.0000 C   0  0  0  0  0  0  0  0  0  0  0  0
   22.1075  -21.0113    0.0000 C   0  0  0  0  0  0  0  0  0  0  0  0
   24.4754  -20.9437    0.0000 O   0  0  0  0  0  0  0  0  0  0  0  0
   24.4754  -19.5906    0.0000 C   0  0  0  0  0  0  0  0  0  0  0  0
   23.2576  -18.9141    0.0000 C   0  0  0  0  0  0  0  0  0  0  0  0
   26.7756  -19.5906    0.0000 C   0  0  0  0  0  0  0  0  0  0  0  0
   25.6255  -18.9141    0.0000 C   0  0  0  0  0  0  0  0  0  0  0  0
   27.9933  -21.6879    0.0000 C   0  0  0  0  0  0  0  0  0  0  0  0
   29.1435  -21.0113    0.0000 C   0  0  0  0  0  0  0  0  0  0  0  0
   29.1435  -19.5906    0.0000 C   0  0  0  0  0  0  0  0  0  0  0  0
   27.9933  -18.9141    0.0000 C   0  0  0  0  0  0  0  0  0  0  0  0
   25.6255  -17.5610    0.0000 C   0  0  0  0  0  0  0  0  0  0  0  0
   23.2576  -17.5610    0.0000 C   0  0  0  0  0  0  0  0  0  0  0  0
   20.9574  -18.9141    0.0000 O   0  0  0  0  0  0  0  0  0  0  0  0
   30.2936  -21.6879    0.0000 C   0  0  0  0  0  0  0  0  0  0  0  0
   26.8432  -21.0113    0.0000 O   0  0  0  0  0  0  0  0  0  0  0  0
   27.9933  -23.3116    0.0000 N   0  0  0  0  0  0  0  0  0  0  0  0
   20.9574  -21.6879    0.0000 C   0  0  0  0  0  0  0  0  0  0  0  0
   19.8073  -21.0113    0.0000 O   0  0  0  0  0  0  0  0  0  0  0  0
   20.9574  -23.3116    0.0000 C   0  0  0  0  0  0  0  0  0  0  0  0
   26.8432  -23.9881    0.0000 C   0  0  0  0  0  0  0  0  0  0  0  0
   26.8432  -25.3412    0.0000 C   0  0  0  0  0  0  0  0  0  0  0  0
   25.6255  -23.3116    0.0000 C   0  0  0  0  0  0  0  0  0  0  0  0
   24.4754  -23.9881    0.0000 C   0  0  0  0  0  0  0  0  0  0  0  0
   24.4754  -25.3412    0.0000 C   0  0  0  0  0  0  0  0  0  0  0  0
   25.6255  -26.0177    0.0000 C   0  0  0  0  0  0  0  0  0  0  0  0
   23.3252  -23.3116    0.0000 C   0  0  0  0  0  0  0  0  0  0  0  0
   22.1075  -23.9881    0.0000 C   0  0  0  0  0  0  0  0  0  0  0  0
   22.1075  -25.3412    0.0000 C   0  0  0  0  0  0  0  0  0  0  0  0
   23.3252  -26.0177    0.0000 C   0  0  0  0  0  0  0  0  0  0  0  0
   25.6255  -21.9585    0.0000 O   0  0  0  0  0  0  0  0  0  0  0  0
   23.3252  -21.9585    0.0000 O   0  0  0  0  0  0  0  0  0  0  0  0
   20.9574  -19.9289    0.0000 C   0  0  0  0  0  0  0  0  0  0  0  0
   18.5895  -20.3348    0.0000 C   0  0  0  0  0  0  0  0  0  0  0  0
   17.4394  -21.0113    0.0000 C   0  0  0  0  0  0  0  0  0  0  0  0
   18.5895  -18.9817    0.0000 O   0  0  0  0  0  0  0  0  0  0  0  0
   19.8073  -23.9881    0.0000 C   0  0  0  0  0  0  0  0  0  0  0  0
   18.6571  -23.3116    0.0000 O   0  0  0  0  0  0  0  0  0  0  0  0
   19.8073  -25.3412    0.0000 C   0  0  0  0  0  0  0  0  0  0  0  0
   19.8073  -22.3644    0.0000 C   0  0  0  0  0  0  0  0  0  0  0  0
   17.5070  -23.9881    0.0000 C   0  0  0  0  0  0  0  0  0  0  0  0
   18.6571  -26.0177    0.0000 C   0  0  0  0  0  0  0  0  0  0  0  0
   18.6571  -27.3708    0.0000 O   0  0  0  0  0  0  0  0  0  0  0  0
   20.9574  -26.0177    0.0000 O   0  0  0  0  0  0  0  0  0  0  0  0
   20.9574  -27.3708    0.0000 C   0  0  0  0  0  0  0  0  0  0  0  0
   23.3252  -27.3708    0.0000 C   0  0  0  0  0  0  0  0  0  0  0  0
   20.9574  -28.7238    0.0000 C   0  0  0  0  0  0  0  0  0  0  0  0
   22.1075  -22.6350    0.0000 C   0  0  0  0  0  0  0  0  0  0  0  0
   25.6255  -27.3708    0.0000 O   0  0  0  0  0  0  0  0  0  0  0  0
   24.4077  -28.0473    0.0000 O   0  0  0  0  0  0  0  0  0  0  0  0
   28.0244  -26.0366    0.0000 C   0  0  0  0  0  0  0  0  0  0  0  0
   29.2227  -25.3581    0.0000 N   0  0  0  0  0  0  0  0  0  0  0  0
   30.3970  -26.0493    0.0000 N   0  0  0  0  0  0  0  0  0  0  0  0
   30.3852  -27.4400    0.0000 C   0  0  0  0  0  0  0  0  0  0  0  0
   31.5917  -28.1502    0.0000 C   0  0  0  0  0  0  0  0  0  0  0  0
   32.8100  -27.4606    0.0000 N   0  0  0  0  0  0  0  0  0  0  0  0
   32.8218  -26.0699    0.0000 C   0  0  0  0  0  0  0  0  0  0  0  0
   31.6154  -25.3596    0.0000 C   0  0  0  0  0  0  0  0  0  0  0  0
   34.0220  -28.1742    0.0000 C   0  0  0  0  0  0  0  0  0  0  0  0
   22.4877  -16.7300    0.0000 C   0  0  0  0  0  0  0  0  0  0  0  0
   23.6995  -17.4291    0.0000 C   0  0  0  0  0  0  0  0  0  0  0  0
   21.2816  -17.4291    0.0000 C   0  0  0  0  0  0  0  0  0  0  0  0
   22.4877  -15.3316    0.0000 C   0  0  0  0  0  0  0  0  0  0  0  0
   24.9115  -16.7300    0.0000 N   0  0  0  0  0  0  0  0  0  0  0  0
   23.6995  -18.8275    0.0000 O   0  0  0  0  0  0  0  0  0  0  0  0
   20.0638  -16.7300    0.0000 C   0  0  0  0  0  0  0  0  0  0  0  0
   21.2816  -14.6266    0.0000 C   0  0  0  0  0  0  0  0  0  0  0  0
   26.1293  -17.4291    0.0000 N   0  0  0  0  0  0  0  0  0  0  0  0
   20.0638  -15.3316    0.0000 N   0  0  0  0  0  0  0  0  0  0  0  0
   16.5851  -14.5401    0.0000 C   0  0  0  0  0  0  0  0  0  0  0  0
   16.5851  -15.9475    0.0000 C   0  0  0  0  0  0  0  0  0  0  0  0
   15.3632  -13.8427    0.0000 N   0  0  0  0  0  0  0  0  0  0  0  0
   17.7880  -13.8427    0.0000 C   0  0  0  0  0  0  0  0  0  0  0  0
   15.3632  -16.6577    0.0000 N   0  0  0  0  0  0  0  0  0  0  0  0
   14.1604  -14.5401    0.0000 C   0  0  0  0  0  0  0  0  0  0  0  0
   18.9971  -14.5336    0.0000 N   0  0  0  0  0  0  0  0  0  0  0  0
   17.7880  -12.5880    0.0000 O   0  0  0  0  0  0  0  0  0  0  0  0
   14.1604  -15.9475    0.0000 C   0  0  0  0  0  0  0  0  0  0  0  0
  1  2  1  0
  4  3  1  6
  4  5  1  0
  1  5  1  0
  6  7  1  0
  4  7  1  0
  8  9  1  0
  9 10  2  0
 10 11  1  0
  6 11  2  0
  7 12  1  1
  5 13  1  6
  1 14  1  6
  9 15  1  0
  8 16  2  0
  8 17  1  0
  2 18  1  0
 18 19  1  1
 18 20  1  0
 17 21  1  0
 21 22  1  0
 21 23  2  0
 23 24  1  0
 24 25  1  0
 25 26  1  0
 24 27  2  0
 27 28  1  0
 28 29  2  0
 29 30  1  0
 25 30  2  0
 23 31  1  0
 27 32  1  0
  2 33  1  1
 19 34  1  0
 34 35  1  0
 34 36  2  0
 26 22  2  0
 20 37  1  0
 37 38  1  6
 37 39  1  0
 20 40  1  6
 38 41  1  0
 39 42  2  0
 42 43  1  0
 29 44  1  0
 44 45  1  0
 43 45  1  0
 30 46  1  0
 45 46  1  0
 45 47  1  6
 28 48  1  0
 26 49  1  0
 50 46  2  0
 22 51  1  0
 51 52  2  0
 52 53  1  0
 53 54  1  0
 54 55  1  0
 55 56  1  0
 56 57  1  0
 57 58  1  0
 53 58  1  0
 56 59  1  0
 60 61  1  0
 60 62  2  0
 60 63  1  0
 61 64  1  0
 61 65  2  0
 62 66  1  0
 63 67  2  0
 64 68  1  0
 66 69  2  0
 67 69  1  0
 70 71  2  0
 70 72  1  0
 70 73  1  0
 71 74  1  0
 72 75  2  0
 73 76  1  0
 73 77  2  0
 74 78  2  0
 75 78  1  0
M  END
