 
     RDKit          2D

107 95  0  1  0  0  0  0  0  0999 V2000
   28.9100  -17.8500    0.0000 Bi  0  0  0  0  0 15  0  0  0  0  0  0
   31.5000  -16.3800    0.0000 K   0  0  0  0  0 15  0  0  0  0  0  0
   31.5000  -17.9900    0.0000 K   0  0  0  0  0 15  0  0  0  0  0  0
   31.5000  -19.6000    0.0000 K   0  0  0  0  0 15  0  0  0  0  0  0
   22.9600  -18.1300    0.0000 C   0  0  0  0  0  0  0  0  0  0  0  0
   21.7700  -18.8300    0.0000 C   0  0  0  0  0  0  0  0  0  0  0  0
   24.1500  -18.8300    0.0000 C   0  0  0  0  0  0  0  0  0  0  0  0
   23.6600  -16.9400    0.0000 C   0  0  0  0  0  0  0  0  0  0  0  0
   22.2600  -16.9400    0.0000 O   0  0  0  0  0  0  0  0  0  0  0  0
   20.5800  -18.2000    0.0000 C   0  0  0  0  0  0  0  0  0  0  0  0
   24.1500  -20.2300    0.0000 C   0  0  0  0  0  0  0  0  0  0  0  0
   22.9600  -15.7500    0.0000 O   0  0  0  0  0  0  0  0  0  0  0  0
   25.0600  -16.9400    0.0000 O   0  0  0  0  0  0  0  0  0  0  0  0
   19.3200  -18.9000    0.0000 O   0  0  0  0  0  0  0  0  0  0  0  0
   20.5800  -16.8000    0.0000 O   0  0  0  0  0  0  0  0  0  0  0  0
   25.4100  -20.9300    0.0000 O   0  0  0  0  0  0  0  0  0  0  0  0
   22.9600  -20.9300    0.0000 O   0  0  0  0  0  0  0  0  0  0  0  0
   22.9600  -18.1300    0.0000 C   0  0  0  0  0  0  0  0  0  0  0  0
   21.7700  -18.8300    0.0000 C   0  0  0  0  0  0  0  0  0  0  0  0
   20.5800  -18.2000    0.0000 C   0  0  0  0  0  0  0  0  0  0  0  0
   19.3200  -18.9000    0.0000 O   0  0  0  0  0  0  0  0  0  0  0  0
   20.5800  -16.8000    0.0000 O   0  0  0  0  0  0  0  0  0  0  0  0
   24.1500  -18.8300    0.0000 C   0  0  0  0  0  0  0  0  0  0  0  0
   24.1500  -20.2300    0.0000 C   0  0  0  0  0  0  0  0  0  0  0  0
   25.4100  -20.9300    0.0000 O   0  0  0  0  0  0  0  0  0  0  0  0
   22.9600  -20.9300    0.0000 O   0  0  0  0  0  0  0  0  0  0  0  0
   23.6600  -16.9400    0.0000 C   0  0  0  0  0  0  0  0  0  0  0  0
   22.9600  -15.7500    0.0000 O   0  0  0  0  0  0  0  0  0  0  0  0
   25.0600  -16.9400    0.0000 O   0  0  0  0  0  0  0  0  0  0  0  0
   22.2600  -16.9400    0.0000 O   0  0  0  0  0  0  0  0  0  0  0  0
   30.3800  -17.8500    0.0000 Bi  0  0  0  0  0 15  0  0  0  0  0  0
   23.9400  -19.8800    0.0000 C   0  0  0  0  0  0  0  0  0  0  0  0
   22.7500  -20.5800    0.0000 C   0  0  0  0  0  0  0  0  0  0  0  0
   25.1300  -20.5800    0.0000 C   0  0  0  0  0  0  0  0  0  0  0  0
   24.6400  -18.6900    0.0000 C   0  0  0  0  0  0  0  0  0  0  0  0
   23.2400  -18.6900    0.0000 O   0  0  0  0  0  0  0  0  0  0  0  0
   21.5600  -19.9500    0.0000 C   0  0  0  0  0  0  0  0  0  0  0  0
   25.1300  -21.9800    0.0000 C   0  0  0  0  0  0  0  0  0  0  0  0
   23.9400  -17.5000    0.0000 O   0  0  0  0  0  0  0  0  0  0  0  0
   26.0400  -18.6900    0.0000 O   0  0  0  0  0  0  0  0  0  0  0  0
   20.3000  -20.6500    0.0000 O   0  0  0  0  0  0  0  0  0  0  0  0
   21.5600  -18.5500    0.0000 O   0  0  0  0  0  0  0  0  0  0  0  0
   26.3900  -22.6800    0.0000 O   0  0  0  0  0  0  0  0  0  0  0  0
   23.9400  -22.6800    0.0000 O   0  0  0  0  0  0  0  0  0  0  0  0
   29.8900  -19.6700    0.0000 K   0  0  0  0  0 15  0  0  0  0  0  0
   31.5000  -19.6000    0.0000 K   0  0  0  0  0 15  0  0  0  0  0  0
   29.8900  -21.2100    0.0000 K   0  0  0  0  0 15  0  0  0  0  0  0
   31.5700  -21.2100    0.0000 K   0  0  0  0  0 15  0  0  0  0  0  0
   30.7300  -22.6800    0.0000 K   0  0  0  0  0 15  0  0  0  0  0  0
   23.9400  -19.8800    0.0000 C   0  0  0  0  0  0  0  0  0  0  0  0
   22.7500  -20.5800    0.0000 C   0  0  0  0  0  0  0  0  0  0  0  0
   21.5600  -19.9500    0.0000 C   0  0  0  0  0  0  0  0  0  0  0  0
   20.3000  -20.6500    0.0000 O   0  0  0  0  0  0  0  0  0  0  0  0
   21.5600  -18.5500    0.0000 O   0  0  0  0  0  0  0  0  0  0  0  0
   25.1300  -20.5800    0.0000 C   0  0  0  0  0  0  0  0  0  0  0  0
   25.1300  -21.9800    0.0000 C   0  0  0  0  0  0  0  0  0  0  0  0
   26.3900  -22.6800    0.0000 O   0  0  0  0  0  0  0  0  0  0  0  0
   23.9400  -22.6800    0.0000 O   0  0  0  0  0  0  0  0  0  0  0  0
   24.6400  -18.6900    0.0000 C   0  0  0  0  0  0  0  0  0  0  0  0
   23.9400  -17.5000    0.0000 O   0  0  0  0  0  0  0  0  0  0  0  0
   26.0400  -18.6900    0.0000 O   0  0  0  0  0  0  0  0  0  0  0  0
   23.2400  -18.6900    0.0000 O   0  0  0  0  0  0  0  0  0  0  0  0
   26.1816  -17.5899    0.0000 C   0  0  0  0  0  0  0  0  0  0  0  0
   26.1641  -18.9900    0.0000 C   0  0  0  0  0  0  0  0  0  0  0  0
   24.9807  -16.8809    0.0000 C   0  0  0  0  0  0  0  0  0  0  0  0
   27.4061  -16.9103    0.0000 C   0  0  0  0  0  0  0  0  0  0  0  0
   24.9515  -19.6756    0.0000 C   0  0  0  0  0  0  0  0  0  0  0  0
   27.3652  -19.7048    0.0000 C   0  0  0  0  0  0  0  0  0  0  0  0
   26.1465  -20.3845    0.0000 O   0  0  0  0  0  0  0  0  0  0  0  0
   23.7621  -17.5665    0.0000 C   0  0  0  0  0  0  0  0  0  0  0  0
   28.6013  -17.6251    0.0000 C   0  0  0  0  0  0  0  0  0  0  0  0
   27.4236  -15.5100    0.0000 N   0  0  0  0  0  0  0  0  0  0  0  0
   23.7504  -18.9666    0.0000 C   0  0  0  0  0  0  0  0  0  0  0  0
   24.9455  -21.0816    0.0000 O   0  0  0  0  0  0  0  0  0  0  0  0
   28.6538  -19.0252    0.0000 C   0  0  0  0  0  0  0  0  0  0  0  0
   27.3418  -21.1050    0.0000 O   0  0  0  0  0  0  0  0  0  0  0  0
   22.5493  -16.8634    0.0000 C   0  0  0  0  0  0  0  0  0  0  0  0
   29.8258  -16.9455    0.0000 O   0  0  0  0  0  0  0  0  0  0  0  0
   28.6481  -14.8247    0.0000 C   0  0  0  0  0  0  0  0  0  0  0  0
   26.2226  -14.7894    0.0000 C   0  0  0  0  0  0  0  0  0  0  0  0
   22.5376  -19.6639    0.0000 C   0  0  0  0  0  0  0  0  0  0  0  0
   29.7847  -19.7401    0.0000 C   0  0  0  0  0  0  0  0  0  0  0  0
   21.3366  -17.5605    0.0000 C   0  0  0  0  0  0  0  0  0  0  0  0
   22.5551  -15.4632    0.0000 C   0  0  0  0  0  0  0  0  0  0  0  0
   21.3306  -18.9608    0.0000 C   0  0  0  0  0  0  0  0  0  0  0  0
   22.5376  -21.0700    0.0000 O   0  0  0  0  0  0  0  0  0  0  0  0
   31.0092  -19.0605    0.0000 N   0  0  0  0  0  0  0  0  0  0  0  0
   29.7672  -21.1461    0.0000 O   0  0  0  0  0  0  0  0  0  0  0  0
   20.1239  -16.8575    0.0000 C   0  0  0  0  0  0  0  0  0  0  0  0
   20.1239  -19.6639    0.0000 C   0  0  0  0  0  0  0  0  0  0  0  0
   18.9053  -17.5605    0.0000 C   0  0  0  0  0  0  0  0  0  0  0  0
   18.9053  -18.9608    0.0000 C   0  0  0  0  0  0  0  0  0  0  0  0
   21.3365  -16.1632    0.0000 O   0  0  0  0  0  0  0  0  0  0  0  0
   20.1239  -21.0639    0.0000 O   0  0  0  0  0  0  0  0  0  0  0  0
   33.8800  -17.3600    0.0000 Cl  0  0  0  0  0  0  0  0  0  0  0  0
   22.2483  -16.2228    0.0000 N   0  0  0  0  0  0  0  0  0  0  0  0
   21.8345  -17.4879    0.0000 C   0  0  0  0  0  0  0  0  0  0  0  0
   21.1640  -15.4301    0.0000 C   0  0  0  0  0  0  0  0  0  0  0  0
   23.3153  -15.5992    0.0000 C   0  0  0  0  0  0  0  0  0  0  0  0
   20.5053  -17.4879    0.0000 C   0  0  0  0  0  0  0  0  0  0  0  0
   22.6157  -18.5665    0.0000 N   0  0  0  0  0  0  0  0  0  0  0  0
   20.0855  -16.2228    0.0000 N   0  0  0  0  0  0  0  0  0  0  0  0
   21.1640  -14.1009    0.0000 C   0  0  0  0  0  0  0  0  0  0  0  0
   24.3995  -16.2812    0.0000 C   0  0  0  0  0  0  0  0  0  0  0  0
   23.7875  -19.7150    0.0000 O   0  0  0  0  0  0  0  0  0  0  0  0
   21.1582  -19.7207    0.0000 O   0  0  0  0  0  0  0  0  0  0  0  0
   25.6763  -15.5992    0.0000 O   0  0  0  0  0  0  0  0  0  0  0  0
  5  6  1  0
  5  7  1  0
  5  8  1  0
  5  9  1  0
  6 10  1  0
  7 11  1  0
  8 12  1  0
  8 13  2  0
 10 14  1  0
 10 15  2  0
 11 16  1  0
 11 17  2  0
 18 19  1  0
 18 23  1  0
 18 27  1  0
 18 30  1  0
 19 20  1  0
 23 24  1  0
 27 28  1  0
 27 29  2  0
 20 21  1  0
 20 22  2  0
 24 25  1  0
 24 26  2  0
 32 33  1  0
 32 34  1  0
 32 35  1  0
 32 36  1  0
 33 37  1  0
 34 38  1  0
 35 39  1  0
 35 40  2  0
 37 41  1  0
 37 42  2  0
 38 43  1  0
 38 44  2  0
 50 51  1  0
 50 55  1  0
 50 59  1  0
 50 62  1  0
 51 52  1  0
 55 56  1  0
 59 60  1  0
 59 61  2  0
 52 53  1  0
 52 54  2  0
 56 57  1  0
 56 58  2  0
 63 64  1  0
 63 65  1  1
 63 66  1  0
 64 67  1  0
 64 68  1  0
 64 69  1  6
 70 65  1  1
 66 71  1  0
 66 72  1  6
 67 73  2  0
 67 74  1  0
 68 75  1  0
 68 76  2  0
 70 77  1  0
 71 78  1  0
 72 79  1  0
 72 80  1  0
 73 81  1  0
 75 82  1  0
 77 83  1  0
 77 84  1  6
 81 85  1  0
 81 86  2  0
 82 87  1  0
 82 88  2  0
 83 89  2  0
 85 90  2  0
 89 91  1  0
 90 92  1  0
 70 73  1  0
 71 75  2  0
 83 85  1  0
 91 92  2  0
 77 93  1  0
 90 94  1  0
 96 97  1  0
 96 98  1  0
 96 99  1  0
 97100  2  0
 97101  1  0
 98102  2  0
 98103  1  0
 99104  1  0
101105  2  0
101106  1  0
104107  1  0
100102  1  0
M  CHG  8   1   3   2   1   3   1   4   1  12  -1  14  -1  16  -1  21  -1
M  CHG  8  25  -1  28  -1  31   3  39  -1  41  -1  43  -1  45   1  46   1
M  CHG  8  47   1  48   1  49   1  53  -1  57  -1  60  -1 101   1 106  -1
M  STY  1   1 MUL
M  SLB  1   1   1
M  SCN  1   1 HT 
M  SAL   1 15   5   6   7   8   9  10  11  12  13  14  15  16  17  18  19
M  SAL   1 11  20  21  22  23  24  25  26  27  28  29  30
M  SPA   1 13   5   6  10  14  15   7  11  16  17   8  12  13   9
M  SDI   1  4   17.6400  -22.0500   17.6400  -14.4200
M  SDI   1  4   27.1600  -14.4200   27.1600  -22.0500
M  SMT   1 2
M  END
