 
     RDKit          2D

 53 52  0  0  1  0  0  0  0  0999 V2000
   24.5218  -16.1191    0.0000 O   0  0  0  0  0  0  0  0  0  0  0  0
   14.0190  -16.1917    0.0000 C   0  0  0  0  0  0  0  0  0  0  0  0
   14.0190  -17.5936    0.0000 C   0  0  0  0  0  0  0  0  0  0  0  0
   15.2106  -18.2946    0.0000 C   0  0  0  0  0  0  0  0  0  0  0  0
   16.4723  -17.5936    0.0000 C   0  0  0  0  0  0  0  0  0  0  0  0
   16.4723  -16.1917    0.0000 C   0  0  0  0  0  0  0  0  0  0  0  0
   15.2106  -15.4907    0.0000 C   0  0  0  0  0  0  0  0  0  0  0  0
   12.8273  -15.4907    0.0000 O   0  0  0  0  0  0  0  0  0  0  0  0
   12.8273  -18.2946    0.0000 O   0  0  0  0  0  0  0  0  0  0  0  0
   17.6640  -15.4907    0.0000 C   0  0  0  0  0  0  0  0  0  0  0  0
   18.8556  -16.1917    0.0000 C   0  0  0  0  0  0  0  0  0  0  0  0
   20.0473  -15.4907    0.0000 C   0  0  0  0  0  0  0  0  0  0  0  0
   21.2389  -16.1917    0.0000 O   0  0  0  0  0  0  0  0  0  0  0  0
   20.0473  -14.0888    0.0000 O   0  0  0  0  0  0  0  0  0  0  0  0
   19.5556  -17.4041    0.0000 N   0  0  0  0  0  0  0  0  0  0  0  0
   17.8657  -17.1816    0.0000 C   0  0  0  0  0  0  0  0  0  0  0  0
   20.9298  -17.4046    0.0000 N   0  0  0  0  0  0  0  0  0  0  0  0
   22.9600  -19.2500    0.0000 C   0  0  0  0  0  0  0  0  0  0  0  0
   22.9600  -20.6500    0.0000 C   0  0  0  0  0  0  0  0  0  0  0  0
   24.1500  -18.5500    0.0000 C   0  0  0  0  0  0  0  0  0  0  0  0
   21.7000  -18.5500    0.0000 O   0  0  0  0  0  0  0  0  0  0  0  0
   24.1500  -21.3500    0.0000 C   0  0  0  0  0  0  0  0  0  0  0  0
   21.7000  -21.3500    0.0000 O   0  0  0  0  0  0  0  0  0  0  0  0
   25.3400  -19.2500    0.0000 C   0  0  0  0  0  0  0  0  0  0  0  0
   25.3400  -20.6500    0.0000 C   0  0  0  0  0  0  0  0  0  0  0  0
   26.6000  -18.6200    0.0000 C   0  0  0  0  0  0  0  0  0  0  0  0
   27.7900  -19.2500    0.0000 C   0  0  0  0  0  0  0  0  0  0  0  0
   28.9800  -18.6200    0.0000 C   0  0  0  0  0  0  0  0  0  0  0  0
   27.7900  -20.6500    0.0000 N   0  0  0  0  0  0  0  0  0  0  0  0
   30.2400  -19.2500    0.0000 O   0  0  0  0  0  0  0  0  0  0  0  0
   28.9800  -17.2200    0.0000 O   0  0  0  0  0  0  0  0  0  0  0  0
   31.3202  -14.7134    0.0000 C   0  0  0  0  0  0  0  0  0  0  0  0
   32.5093  -14.0267    0.0000 C   0  0  0  0  0  0  0  0  0  0  0  0
   30.1199  -14.0267    0.0000 C   0  0  0  0  0  0  0  0  0  0  0  0
   31.3146  -16.1044    0.0000 C   0  0  0  0  0  0  0  0  0  0  0  0
   33.7153  -14.7134    0.0000 C   0  0  0  0  0  0  0  0  0  0  0  0
   28.9193  -14.7077    0.0000 C   0  0  0  0  0  0  0  0  0  0  0  0
   32.5093  -16.8027    0.0000 C   0  0  0  0  0  0  0  0  0  0  0  0
   33.7153  -16.1044    0.0000 C   0  0  0  0  0  0  0  0  0  0  0  0
   34.9158  -14.0267    0.0000 N   0  0  0  0  0  0  0  0  0  0  0  0
   27.7247  -14.0208    0.0000 C   0  0  0  0  0  0  0  0  0  0  0  0
   28.9193  -16.0870    0.0000 C   0  0  0  0  0  0  0  0  0  0  0  0
   32.4565  -18.1878    0.0000 O   0  0  0  0  0  0  0  0  0  0  0  0
   34.9216  -16.7969    0.0000 O   0  0  0  0  0  0  0  0  0  0  0  0
   34.9216  -12.6357    0.0000 O   0  0  0  0  0  0  0  0  0  0  0  0
   36.1162  -14.7077    0.0000 O   0  0  0  0  0  0  0  0  0  0  0  0
   26.5244  -14.7019    0.0000 N   0  0  0  0  0  0  0  0  0  0  0  0
   27.7305  -12.6300    0.0000 O   0  0  0  0  0  0  0  0  0  0  0  0
   28.8957  -17.8178    0.0000 N   0  0  0  0  0  0  0  0  0  0  0  0
   25.3297  -14.0093    0.0000 C   0  0  0  0  0  0  0  0  0  0  0  0
   26.5244  -16.0813    0.0000 C   0  0  0  0  0  0  0  0  0  0  0  0
   24.1293  -14.6961    0.0000 C   0  0  0  0  0  0  0  0  0  0  0  0
   25.3297  -16.7795    0.0000 C   0  0  0  0  0  0  0  0  0  0  0  0
  2  3  2  0
  3  4  1  0
  4  5  2  0
  5  6  1  0
  6  7  2  0
  2  7  1  0
  2  8  1  0
  3  9  1  0
  6 10  1  0
 10 11  1  0
 11 12  1  0
 12 13  1  0
 12 14  2  0
 11 15  1  0
 11 16  1  6
 15 17  1  0
 18 19  2  0
 18 20  1  0
 18 21  1  0
 19 22  1  0
 19 23  1  0
 20 24  2  0
 22 25  2  0
 24 26  1  0
 26 27  1  0
 27 28  1  0
 27 29  1  1
 28 30  1  0
 28 31  2  0
 24 25  1  0
 32 33  2  0
 32 34  1  0
 32 35  1  0
 33 36  1  0
 34 37  2  0
 35 38  2  0
 36 39  2  0
 36 40  1  0
 37 41  1  0
 37 42  1  0
 38 43  1  0
 39 44  1  0
 40 45  2  0
 40 46  1  0
 41 47  1  0
 41 48  2  0
 42 49  3  0
 47 50  1  0
 47 51  1  0
 50 52  1  0
 51 53  1  0
 38 39  1  0
M  CHG  2  40   1  46  -1
M  END
