 
     RDKit          2D

 31 32  0  0  1  0  0  0  0  0999 V2000
   30.3001  -29.3105    0.0000 C   0  0  0  0  0  0  0  0  0  0  0  0
   30.7108  -30.6489    0.0000 C   0  0  0  0  0  0  0  0  0  0  0  0
   32.1107  -30.6718    0.0000 C   0  0  0  0  0  0  0  0  0  0  0  0
   32.5650  -29.3476    0.0000 C   0  0  0  0  0  0  0  0  0  0  0  0
   31.4460  -28.5062    0.0000 N   0  0  0  0  0  0  0  0  0  0  0  0
   31.4460  -27.1062    0.0000 C   0  0  0  0  0  0  0  0  0  0  0  0
   32.6533  -26.4091    0.0000 O   0  0  0  0  0  0  0  0  0  0  0  0
   30.2145  -26.3954    0.0000 C   0  0  0  0  0  0  0  0  0  0  0  0
   29.0237  -27.0832    0.0000 C   0  0  0  0  0  0  0  0  0  0  0  0
   27.8339  -26.3964    0.0000 S   0  0  0  0  0  0  0  0  0  0  0  0
   33.8944  -28.9394    0.0000 C   0  0  0  0  0  0  0  0  0  0  0  0
   35.2472  -29.5220    0.0000 O   0  0  0  0  0  0  0  0  0  0  0  0
   33.8637  -27.5503    0.0000 O   0  0  0  0  0  0  0  0  0  0  0  0
   30.2142  -24.9902    0.0000 C   0  0  0  0  0  0  0  0  0  0  0  0
   22.4791  -15.9596    0.0000 C   0  0  0  0  0  0  0  0  0  0  0  0
   22.4731  -17.3165    0.0000 C   0  0  0  0  0  0  0  0  0  0  0  0
   23.6605  -15.2870    0.0000 C   0  0  0  0  0  0  0  0  0  0  0  0
   21.3034  -15.2811    0.0000 S   0  0  0  0  0  0  0  0  0  0  0  0
   23.6430  -18.0010    0.0000 C   0  0  0  0  0  0  0  0  0  0  0  0
   21.3034  -17.9950    0.0000 N   0  0  0  0  0  0  0  0  0  0  0  0
   24.8304  -15.9713    0.0000 C   0  0  0  0  0  0  0  0  0  0  0  0
   20.1278  -15.9596    0.0000 N   0  0  0  0  0  0  0  0  0  0  0  0
   19.9933  -14.4564    0.0000 O   0  0  0  0  0  0  0  0  0  0  0  0
   22.5376  -14.4564    0.0000 O   0  0  0  0  0  0  0  0  0  0  0  0
   24.8244  -17.3282    0.0000 C   0  0  0  0  0  0  0  0  0  0  0  0
   20.1278  -17.3165    0.0000 C   0  0  0  0  0  0  0  0  0  0  0  0
   26.0118  -15.2987    0.0000 S   0  0  0  0  0  0  0  0  0  0  0  0
   26.0003  -18.0127    0.0000 Cl  0  0  0  0  0  0  0  0  0  0  0  0
   27.2636  -14.4623    0.0000 N   0  0  0  0  0  0  0  0  0  0  0  0
   27.1349  -16.3164    0.0000 O   0  0  0  0  0  0  0  0  0  0  0  0
   24.9357  -14.2516    0.0000 O   0  0  0  0  0  0  0  0  0  0  0  0
  1  2  1  0
  2  3  1  0
  3  4  1  0
  4  5  1  0
  1  5  1  0
  5  6  1  0
  6  7  2  0
  6  8  1  0
  8  9  1  0
  9 10  1  0
  4 11  1  6
 11 12  1  0
 11 13  2  0
  8 14  1  1
 15 16  1  0
 15 17  2  0
 15 18  1  0
 16 19  2  0
 16 20  1  0
 17 21  1  0
 18 22  1  0
 18 23  2  0
 18 24  2  0
 19 25  1  0
 20 26  1  0
 21 27  1  0
 25 28  1  0
 27 29  1  0
 27 30  2  0
 27 31  2  0
 21 25  2  0
 22 26  1  0
M  END
