 
     RDKit          2D

 77 78  0  0  0  0  0  0  0  0999 V2000
   22.4791  -15.9596    0.0000 C   0  0  0  0  0  0  0  0  0  0  0  0
   22.4731  -17.3165    0.0000 C   0  0  0  0  0  0  0  0  0  0  0  0
   23.6605  -15.2870    0.0000 C   0  0  0  0  0  0  0  0  0  0  0  0
   21.3034  -15.2811    0.0000 S   0  0  0  0  0  0  0  0  0  0  0  0
   23.6430  -18.0010    0.0000 C   0  0  0  0  0  0  0  0  0  0  0  0
   21.3034  -17.9950    0.0000 N   0  0  0  0  0  0  0  0  0  0  0  0
   24.8304  -15.9713    0.0000 C   0  0  0  0  0  0  0  0  0  0  0  0
   20.1278  -15.9596    0.0000 N   0  0  0  0  0  0  0  0  0  0  0  0
   19.9933  -14.4564    0.0000 O   0  0  0  0  0  0  0  0  0  0  0  0
   22.5376  -14.4564    0.0000 O   0  0  0  0  0  0  0  0  0  0  0  0
   24.8244  -17.3282    0.0000 C   0  0  0  0  0  0  0  0  0  0  0  0
   20.1278  -17.3165    0.0000 C   0  0  0  0  0  0  0  0  0  0  0  0
   26.0118  -15.2987    0.0000 S   0  0  0  0  0  0  0  0  0  0  0  0
   26.0003  -18.0127    0.0000 Cl  0  0  0  0  0  0  0  0  0  0  0  0
   27.2636  -14.4623    0.0000 N   0  0  0  0  0  0  0  0  0  0  0  0
   27.1349  -16.3164    0.0000 O   0  0  0  0  0  0  0  0  0  0  0  0
   24.9357  -14.2516    0.0000 O   0  0  0  0  0  0  0  0  0  0  0  0
   35.2006  -17.8564    0.0000 N   0  0  0  0  0  0  0  0  0  0  0  0
   36.3299  -18.6909    0.0000 C   0  0  0  0  0  0  0  0  0  0  0  0
   33.9897  -18.5524    0.0000 C   0  0  0  0  0  0  0  0  0  0  0  0
   35.6541  -16.5295    0.0000 C   0  0  0  0  0  0  0  0  0  0  0  0
   37.4720  -17.8812    0.0000 C   0  0  0  0  0  0  0  0  0  0  0  0
   36.3139  -20.0906    0.0000 C   0  0  0  0  0  0  0  0  0  0  0  0
   32.7788  -17.8504    0.0000 C   0  0  0  0  0  0  0  0  0  0  0  0
   33.9897  -19.9506    0.0000 O   0  0  0  0  0  0  0  0  0  0  0  0
   37.0595  -16.5467    0.0000 C   0  0  0  0  0  0  0  0  0  0  0  0
   37.5141  -20.8049    0.0000 O   0  0  0  0  0  0  0  0  0  0  0  0
   35.0922  -20.7744    0.0000 O   0  0  0  0  0  0  0  0  0  0  0  0
   31.5622  -18.5524    0.0000 N   0  0  0  0  0  0  0  0  0  0  0  0
   32.7788  -16.4524    0.0000 C   0  0  0  0  0  0  0  0  0  0  0  0
   30.3513  -17.8504    0.0000 C   0  0  0  0  0  0  0  0  0  0  0  0
   33.9897  -15.7564    0.0000 C   0  0  0  0  0  0  0  0  0  0  0  0
   29.1403  -18.5466    0.0000 C   0  0  0  0  0  0  0  0  0  0  0  0
   30.3513  -16.4524    0.0000 C   0  0  0  0  0  0  0  0  0  0  0  0
   33.9897  -14.3524    0.0000 C   0  0  0  0  0  0  0  0  0  0  0  0
   27.9294  -17.8504    0.0000 C   0  0  0  0  0  0  0  0  0  0  0  0
   31.5679  -15.7504    0.0000 O   0  0  0  0  0  0  0  0  0  0  0  0
   29.1403  -15.7504    0.0000 O   0  0  0  0  0  0  0  0  0  0  0  0
   32.7788  -13.6504    0.0000 C   0  0  0  0  0  0  0  0  0  0  0  0
   26.7185  -18.5466    0.0000 C   0  0  0  0  0  0  0  0  0  0  0  0
   31.5679  -14.3524    0.0000 N   0  0  0  0  0  0  0  0  0  0  0  0
   26.7185  -19.9447    0.0000 C   0  0  0  0  0  0  0  0  0  0  0  0
   25.5076  -17.8447    0.0000 C   0  0  0  0  0  0  0  0  0  0  0  0
   25.5076  -20.6466    0.0000 C   0  0  0  0  0  0  0  0  0  0  0  0
   24.2910  -18.5466    0.0000 C   0  0  0  0  0  0  0  0  0  0  0  0
   24.2910  -19.9447    0.0000 C   0  0  0  0  0  0  0  0  0  0  0  0
   41.5543  -17.3474    0.0000 O   0  0  0  0  0  0  0  0  0  0  0  0
   41.5543  -17.3474    0.0000 O   0  0  0  0  0  0  0  0  0  0  0  0
   28.4900  -18.5500    0.0000 N   0  0  0  0  0  0  0  0  0  0  0  0
   29.6100  -19.3900    0.0000 C   0  0  0  0  0  0  0  0  0  0  0  0
   27.3000  -19.2500    0.0000 C   0  0  0  0  0  0  0  0  0  0  0  0
   28.9100  -17.2200    0.0000 C   0  0  0  0  0  0  0  0  0  0  0  0
   30.7300  -18.5500    0.0000 C   0  0  0  0  0  0  0  0  0  0  0  0
   29.6100  -20.7900    0.0000 C   0  0  0  0  0  0  0  0  0  0  0  0
   26.0400  -18.5500    0.0000 C   0  0  0  0  0  0  0  0  0  0  0  0
   27.3000  -20.6500    0.0000 O   0  0  0  0  0  0  0  0  0  0  0  0
   30.3100  -17.2200    0.0000 C   0  0  0  0  0  0  0  0  0  0  0  0
   30.8000  -21.4900    0.0000 O   0  0  0  0  0  0  0  0  0  0  0  0
   28.3500  -21.4900    0.0000 O   0  0  0  0  0  0  0  0  0  0  0  0
   24.8500  -19.2500    0.0000 N   0  0  0  0  0  0  0  0  0  0  0  0
   26.0400  -17.1500    0.0000 C   0  0  0  0  0  0  0  0  0  0  0  0
   23.6600  -18.5500    0.0000 C   0  0  0  0  0  0  0  0  0  0  0  0
   27.3000  -16.4500    0.0000 C   0  0  0  0  0  0  0  0  0  0  0  0
   22.4000  -19.2500    0.0000 C   0  0  0  0  0  0  0  0  0  0  0  0
   23.6600  -17.1500    0.0000 C   0  0  0  0  0  0  0  0  0  0  0  0
   27.3000  -15.0500    0.0000 C   0  0  0  0  0  0  0  0  0  0  0  0
   21.2100  -18.5500    0.0000 C   0  0  0  0  0  0  0  0  0  0  0  0
   24.8500  -16.4500    0.0000 O   0  0  0  0  0  0  0  0  0  0  0  0
   22.4000  -16.4500    0.0000 O   0  0  0  0  0  0  0  0  0  0  0  0
   26.0400  -14.3500    0.0000 C   0  0  0  0  0  0  0  0  0  0  0  0
   20.0200  -19.2500    0.0000 C   0  0  0  0  0  0  0  0  0  0  0  0
   24.8500  -15.0500    0.0000 N   0  0  0  0  0  0  0  0  0  0  0  0
   20.0200  -20.6500    0.0000 C   0  0  0  0  0  0  0  0  0  0  0  0
   18.7600  -18.5500    0.0000 C   0  0  0  0  0  0  0  0  0  0  0  0
   18.7600  -21.3500    0.0000 C   0  0  0  0  0  0  0  0  0  0  0  0
   17.5700  -19.2500    0.0000 C   0  0  0  0  0  0  0  0  0  0  0  0
   17.5700  -20.6500    0.0000 C   0  0  0  0  0  0  0  0  0  0  0  0
  1  2  1  0
  1  3  2  0
  1  4  1  0
  2  5  2  0
  2  6  1  0
  3  7  1  0
  4  8  1  0
  4  9  2  0
  4 10  2  0
  5 11  1  0
  6 12  1  0
  7 13  1  0
 11 14  1  0
 13 15  1  0
 13 16  2  0
 13 17  2  0
  7 11  2  0
  8 12  1  0
 18 19  1  0
 18 20  1  0
 18 21  1  0
 19 22  1  0
 19 23  1  1
 20 24  1  0
 20 25  2  0
 21 26  1  0
 23 27  1  0
 23 28  2  0
 24 29  1  0
 24 30  1  1
 29 31  1  0
 30 32  1  0
 31 33  1  1
 31 34  1  0
 32 35  1  0
 33 36  1  0
 34 37  1  0
 34 38  2  0
 35 39  1  0
 36 40  1  0
 39 41  1  0
 40 42  2  0
 40 43  1  0
 42 44  1  0
 43 45  2  0
 44 46  2  0
 22 26  1  0
 45 46  1  0
 49 50  1  0
 49 51  1  0
 49 52  1  0
 50 53  1  0
 50 54  1  1
 51 55  1  0
 51 56  2  0
 52 57  1  0
 54 58  1  0
 54 59  2  0
 55 60  1  0
 55 61  1  1
 60 62  1  0
 61 63  1  0
 62 64  1  1
 62 65  1  0
 63 66  1  0
 64 67  1  0
 65 68  1  0
 65 69  2  0
 66 70  1  0
 67 71  1  0
 70 72  1  0
 71 73  2  0
 71 74  1  0
 73 75  1  0
 74 76  2  0
 75 77  2  0
 53 57  1  0
 76 77  1  0
M  END
