 
     RDKit          2D

 56 57  0  0  1  0  0  0  0  0999 V2000
   21.8870  -16.5436    0.0000 O   0  0  0  0  0  0  0  0  0  0  0  0
   23.0994  -15.8436    0.0000 C   0  0  0  0  0  0  0  0  0  0  0  0
   24.3119  -16.5436    0.0000 C   0  0  0  0  0  0  0  0  0  0  0  0
   25.5244  -15.8436    0.0000 C   0  0  0  0  0  0  0  0  0  0  0  0
   26.7368  -16.5436    0.0000 C   0  0  0  0  0  0  0  0  0  0  0  0
   27.9492  -15.8436    0.0000 O   0  0  0  0  0  0  0  0  0  0  0  0
   23.1003  -14.4436    0.0000 O   0  0  0  0  0  0  0  0  0  0  0  0
   26.7404  -17.9435    0.0000 O   0  0  0  0  0  0  0  0  0  0  0  0
   24.3119  -17.9435    0.0000 O   0  0  0  0  0  0  0  0  0  0  0  0
   25.5244  -14.4436    0.0000 O   0  0  0  0  0  0  0  0  0  0  0  0
    9.7300  -16.3100    0.0000 C   0  0  0  0  0  0  0  0  0  0  0  0
    9.7300  -17.7100    0.0000 C   0  0  0  0  0  0  0  0  0  0  0  0
   10.9424  -18.4100    0.0000 N   0  0  0  0  0  0  0  0  0  0  0  0
   12.1549  -17.7100    0.0000 C   0  0  0  0  0  0  0  0  0  0  0  0
   12.1549  -16.3100    0.0000 C   0  0  0  0  0  0  0  0  0  0  0  0
   10.9424  -15.6100    0.0000 N   0  0  0  0  0  0  0  0  0  0  0  0
   13.3673  -18.4100    0.0000 C   0  0  0  0  0  0  0  0  0  0  0  0
   14.5797  -17.7100    0.0000 C   0  0  0  0  0  0  0  0  0  0  0  0
   14.5797  -16.3100    0.0000 C   0  0  0  0  0  0  0  0  0  0  0  0
   13.3673  -15.6100    0.0000 C   0  0  0  0  0  0  0  0  0  0  0  0
   17.0046  -17.7100    0.0000 N   0  0  0  0  0  0  0  0  0  0  0  0
   17.0046  -16.3100    0.0000 C   0  0  0  0  0  0  0  0  0  0  0  0
   15.7922  -15.6100    0.0000 N   0  0  0  0  0  0  0  0  0  0  0  0
   18.3361  -18.1426    0.0000 C   0  0  0  0  0  0  0  0  0  0  0  0
   19.1590  -17.0100    0.0000 C   0  0  0  0  0  0  0  0  0  0  0  0
   18.3361  -15.8774    0.0000 N   0  0  0  0  0  0  0  0  0  0  0  0
   13.3673  -14.2100    0.0000 Br  0  0  0  0  0  0  0  0  0  0  0  0
   27.1995  -15.4829    0.0000 C   0  0  0  0  0  0  0  0  0  0  0  0
   25.5020  -15.4829    0.0000 C   0  0  0  0  0  0  0  0  0  0  0  0
   27.8361  -16.6145    0.0000 C   0  0  0  0  0  0  0  0  0  0  0  0
   24.8653  -16.6852    0.0000 C   0  0  0  0  0  0  0  0  0  0  0  0
   27.1995  -17.8170    0.0000 O   0  0  0  0  0  0  0  0  0  0  0  0
   29.2508  -16.6145    0.0000 O   0  0  0  0  0  0  0  0  0  0  0  0
   23.4508  -16.6852    0.0000 O   0  0  0  0  0  0  0  0  0  0  0  0
   25.5020  -17.8170    0.0000 O   0  0  0  0  0  0  0  0  0  0  0  0
   14.1400  -15.9600    0.0000 C   0  0  0  0  0  0  0  0  0  0  0  0
   15.3300  -16.6600    0.0000 C   0  0  0  0  0  0  0  0  0  0  0  0
   12.9500  -16.6600    0.0000 O   0  0  0  0  0  0  0  0  0  0  0  0
   16.5200  -15.9600    0.0000 C   0  0  0  0  0  0  0  0  0  0  0  0
   17.7100  -16.6600    0.0000 N   0  0  0  0  0  0  0  0  0  0  0  0
   18.9000  -15.9600    0.0000 C   0  0  0  0  0  0  0  0  0  0  0  0
   20.1600  -16.6600    0.0000 C   0  0  0  0  0  0  0  0  0  0  0  0
   18.9000  -14.5600    0.0000 C   0  0  0  0  0  0  0  0  0  0  0  0
   20.1600  -15.2600    0.0000 C   0  0  0  0  0  0  0  0  0  0  0  0
   15.3300  -18.0600    0.0000 O   0  0  0  0  0  0  0  0  0  0  0  0
   12.9500  -18.0600    0.0000 C   0  0  0  0  0  0  0  0  0  0  0  0
   11.8300  -18.9700    0.0000 C   0  0  0  0  0  0  0  0  0  0  0  0
   12.2500  -20.2300    0.0000 N   0  0  0  0  0  0  0  0  0  0  0  0
   13.6500  -20.2300    0.0000 S   0  0  0  0  0  0  0  0  0  0  0  0
   14.0700  -18.9700    0.0000 N   0  0  0  0  0  0  0  0  0  0  0  0
    8.1200  -16.8000    0.0000 O   0  0  0  0  0  0  0  0  0  0  0  0
    8.1200  -18.2700    0.0000 C   0  0  0  0  0  0  0  0  0  0  0  0
    9.3100  -18.9700    0.0000 C   0  0  0  0  0  0  0  0  0  0  0  0
   10.5700  -18.2700    0.0000 N   0  0  0  0  0  0  0  0  0  0  0  0
   10.5700  -16.8000    0.0000 C   0  0  0  0  0  0  0  0  0  0  0  0
    9.3100  -16.1000    0.0000 C   0  0  0  0  0  0  0  0  0  0  0  0
  1  2  1  0
  2  3  1  0
  3  4  1  0
  4  5  1  0
  5  6  1  0
  2  7  2  0
  5  8  2  0
  3  9  1  1
  4 10  1  1
 11 12  2  0
 12 13  1  0
 13 14  2  0
 14 15  1  0
 15 16  2  0
 11 16  1  0
 14 17  1  0
 17 18  2  0
 18 19  1  0
 19 20  2  0
 15 20  1  0
 21 22  2  0
 22 23  1  0
 19 23  1  0
 21 24  1  0
 24 25  1  0
 25 26  1  0
 22 26  1  0
 20 27  1  0
 28 29  2  0
 28 30  1  0
 29 31  1  0
 30 32  1  0
 30 33  2  0
 31 34  1  0
 31 35  2  0
 36 37  1  0
 36 38  1  0
 37 39  1  0
 39 40  1  0
 40 41  1  0
 41 42  1  0
 41 43  1  0
 41 44  1  0
 37 45  1  6
 38 46  1  0
 46 47  1  0
 47 48  2  0
 48 49  1  0
 49 50  1  0
 46 50  2  0
 51 52  1  0
 52 53  1  0
 53 54  1  0
 54 55  1  0
 55 56  1  0
 51 56  1  0
 54 47  1  0
M  END
