 
     RDKit          2D

 45 48  0  0  0  0  0  0  0  0999 V2000
   18.4919  -10.5513    0.0000 C   0  0  0  0  0  0  0  0  0  0  0  0
   17.6483   -9.4316    0.0000 C   0  0  0  0  0  0  0  0  0  0  0  0
   17.9905   -8.0673    0.0000 C   0  0  0  0  0  0  0  0  0  0  0  0
   19.2617   -7.4901    0.0000 N   0  0  0  0  0  0  0  0  0  0  0  0
   19.9065  -10.5817    0.0000 N   0  0  0  0  0  0  0  0  0  0  0  0
   20.5211   -8.1208    0.0000 C   0  0  0  0  0  0  0  0  0  0  0  0
   20.8046   -9.4994    0.0000 C   0  0  0  0  0  0  0  0  0  0  0  0
   16.7987   -7.3203    0.0000 S   0  0  0  0  0  0  0  0  0  0  0  0
   15.7200   -8.2230    0.0000 C   0  0  0  0  0  0  0  0  0  0  0  0
   16.2450   -9.4575    0.0000 C   0  0  0  0  0  0  0  0  0  0  0  0
   14.3803   -7.9003    0.0000 C   0  0  0  0  0  0  0  0  0  0  0  0
   17.7660  -11.7484    0.0000 N   0  0  0  0  0  0  0  0  0  0  0  0
   22.1331   -9.9409    0.0000 C   0  0  0  0  0  0  0  0  0  0  0  0
   23.1798   -9.0111    0.0000 C   0  0  0  0  0  0  0  0  0  0  0  0
   22.8963   -7.6326    0.0000 C   0  0  0  0  0  0  0  0  0  0  0  0
   21.5678   -7.1910    0.0000 C   0  0  0  0  0  0  0  0  0  0  0  0
   16.3806  -11.7887    0.0000 C   0  0  0  0  0  0  0  0  0  0  0  0
   15.7162  -13.0210    0.0000 C   0  0  0  0  0  0  0  0  0  0  0  0
   16.4511  -14.2126    0.0000 N   0  0  0  0  0  0  0  0  0  0  0  0
   17.8365  -14.2422    0.0000 C   0  0  0  0  0  0  0  0  0  0  0  0
   18.5010  -12.9400    0.0000 C   0  0  0  0  0  0  0  0  0  0  0  0
   15.7566  -15.4262    0.0000 C   0  0  0  0  0  0  0  0  0  0  0  0
   20.5485  -17.8188    0.0000 C   0  0  0  0  0  0  0  0  0  0  0  0
   20.5485  -19.2271    0.0000 C   0  0  0  0  0  0  0  0  0  0  0  0
   21.7758  -17.1117    0.0000 O   0  0  0  0  0  0  0  0  0  0  0  0
   19.3215  -17.1117    0.0000 C   0  0  0  0  0  0  0  0  0  0  0  0
   19.3155  -19.9342    0.0000 C   0  0  0  0  0  0  0  0  0  0  0  0
   21.7698  -19.9342    0.0000 C   0  0  0  0  0  0  0  0  0  0  0  0
   22.9971  -17.8188    0.0000 C   0  0  0  0  0  0  0  0  0  0  0  0
   18.1061  -17.8129    0.0000 C   0  0  0  0  0  0  0  0  0  0  0  0
   19.3155  -21.3482    0.0000 C   0  0  0  0  0  0  0  0  0  0  0  0
   21.7698  -21.3482    0.0000 C   0  0  0  0  0  0  0  0  0  0  0  0
   22.9971  -19.2271    0.0000 C   0  0  0  0  0  0  0  0  0  0  0  0
   24.2182  -17.1117    0.0000 C   0  0  0  0  0  0  0  0  0  0  0  0
   16.8788  -17.1059    0.0000 N   0  0  0  0  0  0  0  0  0  0  0  0
   20.5485  -22.0554    0.0000 C   0  0  0  0  0  0  0  0  0  0  0  0
   24.2125  -19.9342    0.0000 C   0  0  0  0  0  0  0  0  0  0  0  0
   25.4395  -17.8188    0.0000 C   0  0  0  0  0  0  0  0  0  0  0  0
   15.6575  -17.8129    0.0000 C   0  0  0  0  0  0  0  0  0  0  0  0
   25.4395  -19.2330    0.0000 C   0  0  0  0  0  0  0  0  0  0  0  0
   26.6609  -19.9400    0.0000 C   0  0  0  0  0  0  0  0  0  0  0  0
   27.9757  -20.5770    0.0000 F   0  0  0  0  0  0  0  0  0  0  0  0
   27.2511  -18.9409    0.0000 F   0  0  0  0  0  0  0  0  0  0  0  0
   25.9713  -21.0737    0.0000 F   0  0  0  0  0  0  0  0  0  0  0  0
   30.6600  -18.6900    0.0000 Cl  0  0  0  0  0  0  0  0  0  0  0  0
  3  4  1  0
  1  5  2  0
  4  6  1  0
  2  3  2  0
  5  7  1  0
  1  2  1  0
  6  7  2  0
  3  8  1  0
  8  9  1  0
  9 10  2  0
  2 10  1  0
  9 11  1  0
  1 12  1  0
  7 13  1  0
 13 14  2  0
 14 15  1  0
 15 16  2  0
  6 16  1  0
 12 17  1  0
 17 18  1  0
 18 19  1  0
 19 20  1  0
 20 21  1  0
 12 21  1  0
 19 22  1  0
 23 24  1  0
 23 25  1  0
 23 26  1  0
 24 27  2  0
 24 28  1  0
 25 29  1  0
 26 30  1  0
 27 31  1  0
 28 32  2  0
 29 33  2  0
 29 34  1  0
 30 35  1  0
 31 36  2  0
 33 37  1  0
 34 38  2  0
 35 39  1  0
 37 40  2  0
 40 41  1  0
 41 42  1  0
 41 43  1  0
 41 44  1  0
 32 36  1  0
 38 40  1  0
M  END
