 
     RDKit          2D

 21 19  0  0  0  0  0  0  0  0999 V2000
   24.0863  -20.4399    0.0000 C   0  0  0  0  0  0  0  0  0  0  0  0
   22.8686  -21.1390    0.0000 C   0  0  0  0  0  0  0  0  0  0  0  0
   25.2980  -21.1390    0.0000 C   0  0  0  0  0  0  0  0  0  0  0  0
   24.0863  -19.0416    0.0000 C   0  0  0  0  0  0  0  0  0  0  0  0
   22.8686  -22.5372    0.0000 C   0  0  0  0  0  0  0  0  0  0  0  0
   25.2980  -22.5372    0.0000 C   0  0  0  0  0  0  0  0  0  0  0  0
   25.3039  -18.3368    0.0000 C   0  0  0  0  0  0  0  0  0  0  0  0
   24.0863  -23.2421    0.0000 C   0  0  0  0  0  0  0  0  0  0  0  0
   25.3039  -16.9443    0.0000 O   0  0  0  0  0  0  0  0  0  0  0  0
   26.5099  -19.0359    0.0000 O   0  0  0  0  0  0  0  0  0  0  0  0
   27.2298  -16.9399    0.0000 Na  0  0  0  0  0 15  0  0  0  0  0  0
   27.6407  -17.7513    0.0000 C   0  0  0  0  0  0  0  0  0  0  0  0
   28.8535  -18.4510    0.0000 C   0  0  0  0  0  0  0  0  0  0  0  0
   26.4279  -18.4510    0.0000 C   0  0  0  0  0  0  0  0  0  0  0  0
   27.6407  -16.3519    0.0000 C   0  0  0  0  0  0  0  0  0  0  0  0
   28.8535  -19.8505    0.0000 C   0  0  0  0  0  0  0  0  0  0  0  0
   26.4279  -19.8505    0.0000 C   0  0  0  0  0  0  0  0  0  0  0  0
   26.4745  -15.6522    0.0000 O   0  0  0  0  0  0  0  0  0  0  0  0
   28.8535  -15.6522    0.0000 O   0  0  0  0  0  0  0  0  0  0  0  0
   27.6407  -20.5502    0.0000 C   0  0  0  0  0  0  0  0  0  0  0  0
   23.9400  -15.6100    0.0000 Na  0  0  0  0  0 15  0  0  0  0  0  0
  1  2  2  0
  1  3  1  0
  1  4  1  0
  2  5  1  0
  3  6  2  0
  4  7  1  0
  5  8  2  0
  7  9  2  0
  7 10  1  0
  6  8  1  0
 12 13  2  0
 12 14  1  0
 12 15  1  0
 13 16  1  0
 14 17  2  0
 15 18  1  0
 15 19  2  0
 16 20  2  0
 17 20  1  0
M  CHG  4  10  -1  11   1  18  -1  21   1
M  END
