 
     RDKit          2D

100106  0  0  1  0  0  0  0  0999 V2000
   26.7400  -19.3900    0.0000 C   0  0  0  0  0  0  0  0  0  0  0  0
   26.7400  -20.7200    0.0000 C   0  0  0  0  0  0  0  0  0  0  0  0
   27.9300  -21.4200    0.0000 C   0  0  0  0  0  0  0  0  0  0  0  0
   29.1200  -20.7200    0.0000 C   0  0  0  0  0  0  0  0  0  0  0  0
   29.1200  -19.3900    0.0000 C   0  0  0  0  0  0  0  0  0  0  0  0
   27.9300  -18.6900    0.0000 C   0  0  0  0  0  0  0  0  0  0  0  0
   30.3100  -21.4200    0.0000 C   0  0  0  0  0  0  0  0  0  0  0  0
   31.5000  -20.7200    0.0000 C   0  0  0  0  0  0  0  0  0  0  0  0
   31.5000  -19.3900    0.0000 C   0  0  0  0  0  0  0  0  0  0  0  0
   30.3100  -18.6900    0.0000 C   0  0  0  0  0  0  0  0  0  0  0  0
   32.6900  -18.6900    0.0000 C   0  0  0  0  0  0  0  0  0  0  0  0
   32.6900  -17.2900    0.0000 C   0  0  0  0  0  0  0  0  0  0  0  0
   31.5000  -16.5900    0.0000 C   0  0  0  0  0  0  0  0  0  0  0  0
   30.3100  -17.2900    0.0000 C   0  0  0  0  0  0  0  0  0  0  0  0
   35.0000  -18.6900    0.0000 C   0  0  0  0  0  0  0  0  0  0  0  0
   35.0000  -17.2900    0.0000 C   0  0  0  0  0  0  0  0  0  0  0  0
   33.8800  -16.5900    0.0000 C   0  0  0  0  0  0  0  0  0  0  0  0
   25.6200  -21.4200    0.0000 O   0  0  0  0  0  0  0  0  0  0  0  0
   29.1200  -17.9900    0.0000 C   0  0  0  0  0  0  0  0  0  0  0  0
   29.1200  -16.5900    0.0000 O   0  0  0  0  0  0  0  0  0  0  0  0
   32.6900  -15.9600    0.0000 C   0  0  0  0  0  0  0  0  0  0  0  0
   33.8800  -14.9100    0.0000 C   0  0  0  0  0  0  0  0  0  0  0  0
   35.0000  -15.9600    0.0000 O   0  0  0  0  0  0  0  0  0  0  0  0
   35.0000  -14.2100    0.0000 C   0  0  0  0  0  0  0  0  0  0  0  0
   32.6900  -14.2100    0.0000 O   0  0  0  0  0  0  0  0  0  0  0  0
   36.1900  -14.9100    0.0000 O   0  0  0  0  0  0  0  0  0  0  0  0
   37.3800  -14.2100    0.0000 C   0  0  0  0  0  0  0  0  0  0  0  0
   38.5000  -14.9100    0.0000 C   0  0  0  0  0  0  0  0  0  0  0  0
   37.3800  -12.8800    0.0000 O   0  0  0  0  0  0  0  0  0  0  0  0
   53.5166  -22.8214    0.0000 S   0  0  0  0  0  0  0  0  0  0  0  0
   53.5166  -21.4177    0.0000 O   0  0  0  0  0  0  0  0  0  0  0  0
   53.5166  -24.1551    0.0000 O   0  0  0  0  0  0  0  0  0  0  0  0
   54.9203  -22.8214    0.0000 O   0  0  0  0  0  0  0  0  0  0  0  0
   52.1830  -22.8214    0.0000 O   0  0  0  0  0  0  0  0  0  0  0  0
   38.9466  -19.9619    0.0000 C   0  0  0  0  0  0  0  0  0  0  0  0
   38.9466  -21.3632    0.0000 C   0  0  0  0  0  0  0  0  0  0  0  0
   40.1600  -22.0639    0.0000 C   0  0  0  0  0  0  0  0  0  0  0  0
   41.3736  -21.3632    0.0000 C   0  0  0  0  0  0  0  0  0  0  0  0
   41.3736  -19.9619    0.0000 C   0  0  0  0  0  0  0  0  0  0  0  0
   40.1600  -19.2614    0.0000 O   0  0  0  0  0  0  0  0  0  0  0  0
   42.6058  -19.2504    0.0000 O   0  0  0  0  0  0  0  0  0  0  0  0
   43.8193  -18.5497    0.0000 C   0  0  0  0  0  0  0  0  0  0  0  0
   45.0612  -19.2669    0.0000 C   0  0  0  0  0  0  0  0  0  0  0  0
   46.2748  -18.5664    0.0000 C   0  0  0  0  0  0  0  0  0  0  0  0
   46.2750  -17.1651    0.0000 C   0  0  0  0  0  0  0  0  0  0  0  0
   45.0331  -16.4480    0.0000 C   0  0  0  0  0  0  0  0  0  0  0  0
   43.8195  -17.1484    0.0000 C   0  0  0  0  0  0  0  0  0  0  0  0
   42.6058  -22.0749    0.0000 O   0  0  0  0  0  0  0  0  0  0  0  0
   38.5840  -22.7167    0.0000 C   0  0  0  0  0  0  0  0  0  0  0  0
   37.5453  -21.3632    0.0000 O   0  0  0  0  0  0  0  0  0  0  0  0
   40.1600  -23.4649    0.0000 N   0  0  0  0  0  0  0  0  0  0  0  0
   38.9298  -24.1754    0.0000 C   0  0  0  0  0  0  0  0  0  0  0  0
   45.0610  -20.6625    0.0000 N   0  0  0  0  0  0  0  0  0  0  0  0
   42.6345  -16.4639    0.0000 O   0  0  0  0  0  0  0  0  0  0  0  0
   47.5120  -16.4509    0.0000 N   0  0  0  0  0  0  0  0  0  0  0  0
   45.0333  -15.0576    0.0000 O   0  0  0  0  0  0  0  0  0  0  0  0
   46.2535  -14.3534    0.0000 C   0  0  0  0  0  0  0  0  0  0  0  0
   47.4531  -15.0464    0.0000 O   0  0  0  0  0  0  0  0  0  0  0  0
   48.6668  -14.3461    0.0000 C   0  0  0  0  0  0  0  0  0  0  0  0
   48.6671  -12.9449    0.0000 C   0  0  0  0  0  0  0  0  0  0  0  0
   47.4675  -12.2519    0.0000 C   0  0  0  0  0  0  0  0  0  0  0  0
   46.2538  -12.9521    0.0000 C   0  0  0  0  0  0  0  0  0  0  0  0
   49.8987  -15.0577    0.0000 C   0  0  0  0  0  0  0  0  0  0  0  0
   51.0955  -14.3670    0.0000 R#  0  0  0  0  0  0  0  0  0  0  0  0
   49.8984  -16.4586    0.0000 N   0  0  0  0  0  0  0  0  0  0  0  0
   51.0952  -17.1500    0.0000 R#  0  0  0  0  0  0  0  0  0  0  0  0
   45.0266  -12.2431    0.0000 N   0  0  0  0  0  0  0  0  0  0  0  0
   25.4100  -17.7100    0.0000 C   0  0  0  0  0  0  0  0  0  0  0  0
   23.3800  -18.3400    0.0000 C   0  0  0  0  0  0  0  0  0  0  0  0
   25.6900  -18.7600    0.0000 O   0  0  0  0  0  0  0  0  0  0  0  0
   26.6000  -18.1300    0.0000 C   0  0  0  0  0  0  0  0  0  0  0  0
   22.6100  -17.3600    0.0000 C   0  0  0  0  0  0  0  0  0  0  0  0
   22.5400  -19.1100    0.0000 O   0  0  0  0  0  0  0  0  0  0  0  0
   25.9700  -19.8100    0.0000 C   0  0  0  0  0  0  0  0  0  0  0  0
   25.5500  -17.0800    0.0000 C   0  0  0  0  0  0  0  0  0  0  0  0
   27.5100  -17.5700    0.0000 N   0  0  0  0  0  0  0  0  0  0  0  0
   21.7000  -17.8500    0.0000 O   0  0  0  0  0  0  0  0  0  0  0  0
   23.8700  -17.7100    0.0000 C   0  0  0  0  0  0  0  0  0  0  0  0
   26.6700  -20.7900    0.0000 C   0  0  0  0  0  0  0  0  0  0  0  0
   27.4400  -19.8100    0.0000 O   0  0  0  0  0  0  0  0  0  0  0  0
   21.4200  -16.8000    0.0000 C   0  0  0  0  0  0  0  0  0  0  0  0
   24.2900  -16.2400    0.0000 N   0  0  0  0  0  0  0  0  0  0  0  0
   28.7700  -20.2300    0.0000 C   0  0  0  0  0  0  0  0  0  0  0  0
   25.9000  -21.5600    0.0000 O   0  0  0  0  0  0  0  0  0  0  0  0
   28.9800  -19.3200    0.0000 C   0  0  0  0  0  0  0  0  0  0  0  0
   20.9300  -15.4700    0.0000 O   0  0  0  0  0  0  0  0  0  0  0  0
   20.1600  -16.3800    0.0000 C   0  0  0  0  0  0  0  0  0  0  0  0
   29.9600  -20.6500    0.0000 C   0  0  0  0  0  0  0  0  0  0  0  0
   28.4900  -21.4900    0.0000 N   0  0  0  0  0  0  0  0  0  0  0  0
   18.6200  -16.3800    0.0000 C   0  0  0  0  0  0  0  0  0  0  0  0
   18.1300  -17.0100    0.0000 C   0  0  0  0  0  0  0  0  0  0  0  0
   19.8800  -17.5700    0.0000 N   0  0  0  0  0  0  0  0  0  0  0  0
   30.8700  -20.0900    0.0000 C   0  0  0  0  0  0  0  0  0  0  0  0
   30.5200  -21.5600    0.0000 O   0  0  0  0  0  0  0  0  0  0  0  0
   29.5400  -22.6100    0.0000 C   0  0  0  0  0  0  0  0  0  0  0  0
   17.4300  -16.0300    0.0000 C   0  0  0  0  0  0  0  0  0  0  0  0
   18.8300  -14.7700    0.0000 C   0  0  0  0  0  0  0  0  0  0  0  0
   19.8800  -14.4900    0.0000 N   0  0  0  0  0  0  0  0  0  0  0  0
   18.0600  -14.0000    0.0000 C   0  0  0  0  0  0  0  0  0  0  0  0
   20.4400  -13.2300    0.0000 C   0  0  0  0  0  0  0  0  0  0  0  0
  1  2  1  0
  2  3  1  0
  3  4  2  0
  4  5  1  0
  5  6  1  0
  1  6  2  0
  4  7  1  0
  7  8  1  0
  9  8  1  6
  9 10  1  0
  5 10  1  0
  9 11  1  0
 11 12  1  0
 12 13  1  0
 13 14  1  0
 10 14  1  1
 11 15  1  1
 15 16  1  0
 16 17  1  0
 12 17  1  0
  2 18  2  0
  5 19  1  1
 14 20  1  1
 12 21  1  1
 17 22  1  0
 17 23  1  6
 22 24  1  0
 22 25  2  0
 24 26  1  0
 26 27  1  0
 27 28  1  0
 27 29  2  0
 30 31  2  0
 30 32  2  0
 30 33  1  0
 30 34  1  0
 35 36  1  0
 36 37  1  0
 37 38  1  0
 38 39  1  0
 39 40  1  0
 35 40  1  0
 39 41  1  6
 42 41  1  6
 42 43  1  0
 43 44  1  0
 44 45  1  0
 45 46  1  0
 46 47  1  0
 42 47  1  0
 38 48  1  6
 36 49  1  6
 36 50  1  0
 37 51  1  1
 51 52  1  0
 43 53  1  1
 47 54  1  1
 45 55  1  1
 46 56  1  6
 57 56  1  6
 57 58  1  0
 58 59  1  0
 59 60  1  1
 60 61  1  0
 61 62  1  0
 57 62  1  0
 59 63  1  0
 63 64  1  1
 63 65  1  0
 65 66  1  0
 62 67  1  6
 68 69  1  0
 68 70  1  0
 68 71  1  0
 69 72  1  0
 69 73  1  0
 70 74  1  0
 71 75  1  0
 71 76  1  0
 72 77  1  0
 72 78  1  0
 74 79  1  0
 74 80  1  0
 77 81  1  0
 78 82  1  0
 79 83  1  0
 79 84  1  0
 80 85  1  0
 81 86  1  0
 81 87  1  0
 83 88  1  0
 83 89  1  0
 86 90  1  0
 87 91  1  0
 87 92  1  0
 88 93  1  0
 88 94  1  0
 89 95  1  0
 90 96  1  0
 90 97  1  0
 97 98  1  0
 97 99  1  0
 98100  1  0
 75 78  1  0
 85 88  1  0
 91 96  1  0
M  RGP  2  64   1  66   2
V   64 *
V   66 *
M  END
