 
     RDKit          2D

240253  0  0  1  0  0  0  0  0999 V2000
   13.5100  -21.2800    0.0000 C   0  0  0  0  0  0  0  0  0  0  0  0
   13.5100  -22.6800    0.0000 C   0  0  0  0  0  0  0  0  0  0  0  0
   14.9100  -22.6800    0.0000 N   0  0  0  0  0  0  0  0  0  0  0  0
   14.9100  -21.2800    0.0000 C   0  0  0  0  0  0  0  0  0  0  0  0
   12.3200  -23.3800    0.0000 O   0  0  0  0  0  0  0  0  0  0  0  0
   16.1000  -23.3800    0.0000 C   0  0  0  0  0  0  0  0  0  0  0  0
   16.1000  -24.7800    0.0000 C   0  0  0  0  0  0  0  0  0  0  0  0
   17.3600  -25.4800    0.0000 C   0  0  0  0  0  0  0  0  0  0  0  0
   18.5500  -24.7800    0.0000 C   0  0  0  0  0  0  0  0  0  0  0  0
   18.5500  -23.3800    0.0000 C   0  0  0  0  0  0  0  0  0  0  0  0
   17.3600  -22.6800    0.0000 C   0  0  0  0  0  0  0  0  0  0  0  0
   19.7400  -25.4800    0.0000 F   0  0  0  0  0  0  0  0  0  0  0  0
   16.1000  -20.5800    0.0000 C   0  0  0  0  0  0  0  0  0  0  0  0
   17.2900  -21.2800    0.0000 C   0  0  0  0  0  0  0  0  0  0  0  0
   18.5500  -20.5800    0.0000 C   0  0  0  0  0  0  0  0  0  0  0  0
   18.5500  -19.1800    0.0000 C   0  0  0  0  0  0  0  0  0  0  0  0
   17.3600  -18.4800    0.0000 C   0  0  0  0  0  0  0  0  0  0  0  0
   16.1000  -19.1800    0.0000 C   0  0  0  0  0  0  0  0  0  0  0  0
   19.7400  -18.4800    0.0000 O   0  0  0  0  0  0  0  0  0  0  0  0
   12.3200  -20.5800    0.0000 C   0  0  0  0  0  0  0  0  0  0  0  0
   11.1300  -21.2800    0.0000 C   0  0  0  0  0  0  0  0  0  0  0  0
    9.9400  -20.5800    0.0000 C   0  0  0  0  0  0  0  0  0  0  0  0
    8.7500  -21.2800    0.0000 C   0  0  0  0  0  0  0  0  0  0  0  0
    9.9400  -19.1800    0.0000 O   0  0  0  0  0  0  0  0  0  0  0  0
    7.5600  -20.5800    0.0000 C   0  0  0  0  0  0  0  0  0  0  0  0
    6.3000  -21.2800    0.0000 C   0  0  0  0  0  0  0  0  0  0  0  0
    6.3000  -22.6800    0.0000 C   0  0  0  0  0  0  0  0  0  0  0  0
    7.4900  -23.3800    0.0000 C   0  0  0  0  0  0  0  0  0  0  0  0
    8.7500  -22.6800    0.0000 C   0  0  0  0  0  0  0  0  0  0  0  0
    5.1100  -23.3800    0.0000 F   0  0  0  0  0  0  0  0  0  0  0  0
   22.6759  -21.0892    0.0000 C   0  0  0  0  0  0  0  0  0  0  0  0
   24.0739  -21.0892    0.0000 C   0  0  0  0  0  0  0  0  0  0  0  0
   24.4932  -19.7378    0.0000 C   0  0  0  0  0  0  0  0  0  0  0  0
   23.3749  -18.9456    0.0000 N   0  0  0  0  0  0  0  0  0  0  0  0
   22.2100  -19.7378    0.0000 C   0  0  0  0  0  0  0  0  0  0  0  0
   21.8371  -22.2075    0.0000 C   0  0  0  0  0  0  0  0  0  0  0  0
   25.7980  -19.3184    0.0000 C   0  0  0  0  0  0  0  0  0  0  0  0
   20.9052  -19.3184    0.0000 C   0  0  0  0  0  0  0  0  0  0  0  0
   23.3749  -17.5477    0.0000 C   0  0  0  0  0  0  0  0  0  0  0  0
   24.5865  -16.8487    0.0000 C   0  0  0  0  0  0  0  0  0  0  0  0
   24.5865  -15.4508    0.0000 C   0  0  0  0  0  0  0  0  0  0  0  0
   25.7980  -14.7519    0.0000 O   0  0  0  0  0  0  0  0  0  0  0  0
   23.3749  -14.7519    0.0000 C   0  0  0  0  0  0  0  0  0  0  0  0
   23.3749  -13.3539    0.0000 C   0  0  0  0  0  0  0  0  0  0  0  0
   24.5865  -12.6550    0.0000 C   0  0  0  0  0  0  0  0  0  0  0  0
   22.1634  -12.6550    0.0000 O   0  0  0  0  0  0  0  0  0  0  0  0
   25.9844  -12.6550    0.0000 C   0  0  0  0  0  0  0  0  0  0  0  0
   26.6834  -13.8666    0.0000 O   0  0  0  0  0  0  0  0  0  0  0  0
   26.6834  -11.4435    0.0000 O   0  0  0  0  0  0  0  0  0  0  0  0
   20.6256  -17.9205    0.0000 C   0  0  0  0  0  0  0  0  0  0  0  0
   19.2743  -17.5011    0.0000 C   0  0  0  0  0  0  0  0  0  0  0  0
   18.2492  -18.4331    0.0000 C   0  0  0  0  0  0  0  0  0  0  0  0
   18.5288  -19.8310    0.0000 C   0  0  0  0  0  0  0  0  0  0  0  0
   19.8800  -20.2504    0.0000 C   0  0  0  0  0  0  0  0  0  0  0  0
   26.8697  -20.2504    0.0000 C   0  0  0  0  0  0  0  0  0  0  0  0
   26.1241  -17.9205    0.0000 C   0  0  0  0  0  0  0  0  0  0  0  0
   16.8979  -18.0137    0.0000 F   0  0  0  0  0  0  0  0  0  0  0  0
   24.8881  -22.1939    0.0000 C   0  0  0  0  0  0  0  0  0  0  0  0
   26.2874  -22.1939    0.0000 N   0  0  0  0  0  0  0  0  0  0  0  0
   24.2674  -23.4227    0.0000 O   0  0  0  0  0  0  0  0  0  0  0  0
   26.9855  -23.4031    0.0000 C   0  0  0  0  0  0  0  0  0  0  0  0
   26.3066  -24.5794    0.0000 C   0  0  0  0  0  0  0  0  0  0  0  0
   27.0062  -25.7913    0.0000 C   0  0  0  0  0  0  0  0  0  0  0  0
   28.4055  -25.7912    0.0000 C   0  0  0  0  0  0  0  0  0  0  0  0
   29.0846  -24.6148    0.0000 C   0  0  0  0  0  0  0  0  0  0  0  0
   28.3848  -23.4030    0.0000 C   0  0  0  0  0  0  0  0  0  0  0  0
   20.4310  -22.1443    0.0000 C   0  0  0  0  0  0  0  0  0  0  0  0
   19.6783  -23.3240    0.0000 C   0  0  0  0  0  0  0  0  0  0  0  0
   20.3236  -24.6356    0.0000 C   0  0  0  0  0  0  0  0  0  0  0  0
   21.7318  -24.6282    0.0000 C   0  0  0  0  0  0  0  0  0  0  0  0
   22.4845  -23.4486    0.0000 C   0  0  0  0  0  0  0  0  0  0  0  0
   31.9955  -16.4087    0.0000 Ca  0  0  0  0  0 15  0  0  0  0  0  0
   33.3743  -18.9605    0.0000 O   0  0  0  0  0  0  0  0  0  0  0  0
   22.6759  -21.0892    0.0000 C   0  0  0  0  0  0  0  0  0  0  0  0
   24.0739  -21.0892    0.0000 C   0  0  0  0  0  0  0  0  0  0  0  0
   24.4932  -19.7378    0.0000 C   0  0  0  0  0  0  0  0  0  0  0  0
   23.3749  -18.9456    0.0000 N   0  0  0  0  0  0  0  0  0  0  0  0
   22.2100  -19.7378    0.0000 C   0  0  0  0  0  0  0  0  0  0  0  0
   20.9052  -19.3184    0.0000 C   0  0  0  0  0  0  0  0  0  0  0  0
   20.6256  -17.9205    0.0000 C   0  0  0  0  0  0  0  0  0  0  0  0
   19.2743  -17.5011    0.0000 C   0  0  0  0  0  0  0  0  0  0  0  0
   18.2492  -18.4331    0.0000 C   0  0  0  0  0  0  0  0  0  0  0  0
   18.5288  -19.8310    0.0000 C   0  0  0  0  0  0  0  0  0  0  0  0
   19.8800  -20.2504    0.0000 C   0  0  0  0  0  0  0  0  0  0  0  0
   16.8979  -18.0137    0.0000 F   0  0  0  0  0  0  0  0  0  0  0  0
   23.3749  -17.5477    0.0000 C   0  0  0  0  0  0  0  0  0  0  0  0
   24.5865  -16.8487    0.0000 C   0  0  0  0  0  0  0  0  0  0  0  0
   24.5865  -15.4508    0.0000 C   0  0  0  0  0  0  0  0  0  0  0  0
   25.7980  -14.7519    0.0000 O   0  0  0  0  0  0  0  0  0  0  0  0
   23.3749  -14.7519    0.0000 C   0  0  0  0  0  0  0  0  0  0  0  0
   23.3749  -13.3539    0.0000 C   0  0  0  0  0  0  0  0  0  0  0  0
   24.5865  -12.6550    0.0000 C   0  0  0  0  0  0  0  0  0  0  0  0
   25.9844  -12.6550    0.0000 C   0  0  0  0  0  0  0  0  0  0  0  0
   26.6834  -13.8666    0.0000 O   0  0  0  0  0  0  0  0  0  0  0  0
   26.6834  -11.4435    0.0000 O   0  0  0  0  0  0  0  0  0  0  0  0
   22.1634  -12.6550    0.0000 O   0  0  0  0  0  0  0  0  0  0  0  0
   25.7980  -19.3184    0.0000 C   0  0  0  0  0  0  0  0  0  0  0  0
   26.8697  -20.2504    0.0000 C   0  0  0  0  0  0  0  0  0  0  0  0
   26.1241  -17.9205    0.0000 C   0  0  0  0  0  0  0  0  0  0  0  0
   24.8881  -22.1939    0.0000 C   0  0  0  0  0  0  0  0  0  0  0  0
   26.2874  -22.1939    0.0000 N   0  0  0  0  0  0  0  0  0  0  0  0
   26.9855  -23.4031    0.0000 C   0  0  0  0  0  0  0  0  0  0  0  0
   26.3066  -24.5794    0.0000 C   0  0  0  0  0  0  0  0  0  0  0  0
   27.0062  -25.7913    0.0000 C   0  0  0  0  0  0  0  0  0  0  0  0
   28.4055  -25.7912    0.0000 C   0  0  0  0  0  0  0  0  0  0  0  0
   29.0846  -24.6148    0.0000 C   0  0  0  0  0  0  0  0  0  0  0  0
   28.3848  -23.4030    0.0000 C   0  0  0  0  0  0  0  0  0  0  0  0
   24.2674  -23.4227    0.0000 O   0  0  0  0  0  0  0  0  0  0  0  0
   21.8371  -22.2075    0.0000 C   0  0  0  0  0  0  0  0  0  0  0  0
   20.4310  -22.1443    0.0000 C   0  0  0  0  0  0  0  0  0  0  0  0
   19.6783  -23.3240    0.0000 C   0  0  0  0  0  0  0  0  0  0  0  0
   20.3236  -24.6356    0.0000 C   0  0  0  0  0  0  0  0  0  0  0  0
   21.7318  -24.6282    0.0000 C   0  0  0  0  0  0  0  0  0  0  0  0
   22.4845  -23.4486    0.0000 C   0  0  0  0  0  0  0  0  0  0  0  0
   33.3743  -18.9605    0.0000 O   0  0  0  0  0  0  0  0  0  0  0  0
   33.3743  -18.9605    0.0000 O   0  0  0  0  0  0  0  0  0  0  0  0
   24.7759  -21.2292    0.0000 C   0  0  0  0  0  0  0  0  0  0  0  0
   26.1739  -21.2292    0.0000 C   0  0  0  0  0  0  0  0  0  0  0  0
   26.5932  -19.8778    0.0000 C   0  0  0  0  0  0  0  0  0  0  0  0
   25.4749  -19.0856    0.0000 N   0  0  0  0  0  0  0  0  0  0  0  0
   24.3100  -19.8778    0.0000 C   0  0  0  0  0  0  0  0  0  0  0  0
   23.9371  -22.3475    0.0000 C   0  0  0  0  0  0  0  0  0  0  0  0
   27.8980  -19.4584    0.0000 C   0  0  0  0  0  0  0  0  0  0  0  0
   23.0052  -19.4584    0.0000 C   0  0  0  0  0  0  0  0  0  0  0  0
   25.4749  -17.6877    0.0000 C   0  0  0  0  0  0  0  0  0  0  0  0
   26.6865  -16.9887    0.0000 C   0  0  0  0  0  0  0  0  0  0  0  0
   26.6865  -15.5908    0.0000 C   0  0  0  0  0  0  0  0  0  0  0  0
   27.8980  -14.8919    0.0000 O   0  0  0  0  0  0  0  0  0  0  0  0
   25.4749  -14.8919    0.0000 C   0  0  0  0  0  0  0  0  0  0  0  0
   25.4749  -13.4939    0.0000 C   0  0  0  0  0  0  0  0  0  0  0  0
   26.6865  -12.7950    0.0000 C   0  0  0  0  0  0  0  0  0  0  0  0
   24.2634  -12.7950    0.0000 O   0  0  0  0  0  0  0  0  0  0  0  0
   28.0844  -12.7950    0.0000 C   0  0  0  0  0  0  0  0  0  0  0  0
   28.7834  -14.0066    0.0000 O   0  0  0  0  0  0  0  0  0  0  0  0
   28.7834  -11.5835    0.0000 O   0  0  0  0  0  0  0  0  0  0  0  0
   22.7256  -18.0605    0.0000 C   0  0  0  0  0  0  0  0  0  0  0  0
   21.3743  -17.6411    0.0000 C   0  0  0  0  0  0  0  0  0  0  0  0
   20.3492  -18.5731    0.0000 C   0  0  0  0  0  0  0  0  0  0  0  0
   20.6288  -19.9710    0.0000 C   0  0  0  0  0  0  0  0  0  0  0  0
   21.9800  -20.3904    0.0000 C   0  0  0  0  0  0  0  0  0  0  0  0
   28.9697  -20.3904    0.0000 C   0  0  0  0  0  0  0  0  0  0  0  0
   28.2241  -18.0605    0.0000 C   0  0  0  0  0  0  0  0  0  0  0  0
   18.9979  -18.1537    0.0000 F   0  0  0  0  0  0  0  0  0  0  0  0
   26.9881  -22.3339    0.0000 C   0  0  0  0  0  0  0  0  0  0  0  0
   28.3874  -22.3339    0.0000 N   0  0  0  0  0  0  0  0  0  0  0  0
   26.3674  -23.5627    0.0000 O   0  0  0  0  0  0  0  0  0  0  0  0
   29.0855  -23.5431    0.0000 C   0  0  0  0  0  0  0  0  0  0  0  0
   28.4066  -24.7194    0.0000 C   0  0  0  0  0  0  0  0  0  0  0  0
   29.1062  -25.9313    0.0000 C   0  0  0  0  0  0  0  0  0  0  0  0
   30.5055  -25.9312    0.0000 C   0  0  0  0  0  0  0  0  0  0  0  0
   31.1846  -24.7548    0.0000 C   0  0  0  0  0  0  0  0  0  0  0  0
   30.4848  -23.5430    0.0000 C   0  0  0  0  0  0  0  0  0  0  0  0
   22.5310  -22.3543    0.0000 C   0  0  0  0  0  0  0  0  0  0  0  0
   21.7783  -23.4640    0.0000 C   0  0  0  0  0  0  0  0  0  0  0  0
   22.4236  -24.7756    0.0000 C   0  0  0  0  0  0  0  0  0  0  0  0
   23.8318  -24.7682    0.0000 C   0  0  0  0  0  0  0  0  0  0  0  0
   24.5845  -23.5886    0.0000 C   0  0  0  0  0  0  0  0  0  0  0  0
   32.8355  -18.0187    0.0000 Ca  0  0  0  0  0 15  0  0  0  0  0  0
   24.7759  -21.2292    0.0000 C   0  0  0  0  0  0  0  0  0  0  0  0
   26.1739  -21.2292    0.0000 C   0  0  0  0  0  0  0  0  0  0  0  0
   26.5932  -19.8778    0.0000 C   0  0  0  0  0  0  0  0  0  0  0  0
   25.4749  -19.0856    0.0000 N   0  0  0  0  0  0  0  0  0  0  0  0
   24.3100  -19.8778    0.0000 C   0  0  0  0  0  0  0  0  0  0  0  0
   23.0052  -19.4584    0.0000 C   0  0  0  0  0  0  0  0  0  0  0  0
   22.7256  -18.0605    0.0000 C   0  0  0  0  0  0  0  0  0  0  0  0
   21.3743  -17.6411    0.0000 C   0  0  0  0  0  0  0  0  0  0  0  0
   20.3492  -18.5731    0.0000 C   0  0  0  0  0  0  0  0  0  0  0  0
   20.6288  -19.9710    0.0000 C   0  0  0  0  0  0  0  0  0  0  0  0
   21.9800  -20.3904    0.0000 C   0  0  0  0  0  0  0  0  0  0  0  0
   18.9979  -18.1537    0.0000 F   0  0  0  0  0  0  0  0  0  0  0  0
   25.4749  -17.6877    0.0000 C   0  0  0  0  0  0  0  0  0  0  0  0
   26.6865  -16.9887    0.0000 C   0  0  0  0  0  0  0  0  0  0  0  0
   26.6865  -15.5908    0.0000 C   0  0  0  0  0  0  0  0  0  0  0  0
   27.8980  -14.8919    0.0000 O   0  0  0  0  0  0  0  0  0  0  0  0
   25.4749  -14.8919    0.0000 C   0  0  0  0  0  0  0  0  0  0  0  0
   25.4749  -13.4939    0.0000 C   0  0  0  0  0  0  0  0  0  0  0  0
   26.6865  -12.7950    0.0000 C   0  0  0  0  0  0  0  0  0  0  0  0
   28.0844  -12.7950    0.0000 C   0  0  0  0  0  0  0  0  0  0  0  0
   28.7834  -14.0066    0.0000 O   0  0  0  0  0  0  0  0  0  0  0  0
   28.7834  -11.5835    0.0000 O   0  0  0  0  0  0  0  0  0  0  0  0
   24.2634  -12.7950    0.0000 O   0  0  0  0  0  0  0  0  0  0  0  0
   27.8980  -19.4584    0.0000 C   0  0  0  0  0  0  0  0  0  0  0  0
   28.9697  -20.3904    0.0000 C   0  0  0  0  0  0  0  0  0  0  0  0
   28.2241  -18.0605    0.0000 C   0  0  0  0  0  0  0  0  0  0  0  0
   26.9881  -22.3339    0.0000 C   0  0  0  0  0  0  0  0  0  0  0  0
   28.3874  -22.3339    0.0000 N   0  0  0  0  0  0  0  0  0  0  0  0
   29.0855  -23.5431    0.0000 C   0  0  0  0  0  0  0  0  0  0  0  0
   28.4066  -24.7194    0.0000 C   0  0  0  0  0  0  0  0  0  0  0  0
   29.1062  -25.9313    0.0000 C   0  0  0  0  0  0  0  0  0  0  0  0
   30.5055  -25.9312    0.0000 C   0  0  0  0  0  0  0  0  0  0  0  0
   31.1846  -24.7548    0.0000 C   0  0  0  0  0  0  0  0  0  0  0  0
   30.4848  -23.5430    0.0000 C   0  0  0  0  0  0  0  0  0  0  0  0
   26.3674  -23.5627    0.0000 O   0  0  0  0  0  0  0  0  0  0  0  0
   23.9371  -22.3475    0.0000 C   0  0  0  0  0  0  0  0  0  0  0  0
   22.5310  -22.3543    0.0000 C   0  0  0  0  0  0  0  0  0  0  0  0
   21.7783  -23.4640    0.0000 C   0  0  0  0  0  0  0  0  0  0  0  0
   22.4236  -24.7756    0.0000 C   0  0  0  0  0  0  0  0  0  0  0  0
   23.8318  -24.7682    0.0000 C   0  0  0  0  0  0  0  0  0  0  0  0
   24.5845  -23.5886    0.0000 C   0  0  0  0  0  0  0  0  0  0  0  0
   26.8100  -17.9900    0.0000 C   0  0  0  0  0  0  0  0  0  0  0  0
   25.4100  -17.9900    0.0000 C   0  0  0  0  0  0  0  0  0  0  0  0
   27.2300  -16.7300    0.0000 C   0  0  0  0  0  0  0  0  0  0  0  0
   27.5800  -19.0400    0.0000 C   0  0  0  0  0  0  0  0  0  0  0  0
   25.0600  -16.6600    0.0000 N   0  0  0  0  0  0  0  0  0  0  0  0
   24.6400  -19.0400    0.0000 C   0  0  0  0  0  0  0  0  0  0  0  0
   26.1100  -15.8900    0.0000 C   0  0  0  0  0  0  0  0  0  0  0  0
   28.4900  -15.9600    0.0000 C   0  0  0  0  0  0  0  0  0  0  0  0
   26.8800  -20.2300    0.0000 C   0  0  0  0  0  0  0  0  0  0  0  0
   28.9100  -19.0400    0.0000 C   0  0  0  0  0  0  0  0  0  0  0  0
   23.8000  -15.8200    0.0000 C   0  0  0  0  0  0  0  0  0  0  0  0
   25.3400  -20.1600    0.0000 C   0  0  0  0  0  0  0  0  0  0  0  0
   23.3100  -19.0400    0.0000 C   0  0  0  0  0  0  0  0  0  0  0  0
   26.1100  -14.2100    0.0000 C   0  0  0  0  0  0  0  0  0  0  0  0
   29.7500  -16.5900    0.0000 N   0  0  0  0  0  0  0  0  0  0  0  0
   28.4900  -14.7000    0.0000 O   0  0  0  0  0  0  0  0  0  0  0  0
   27.5800  -21.4200    0.0000 C   0  0  0  0  0  0  0  0  0  0  0  0
   29.5400  -20.2300    0.0000 C   0  0  0  0  0  0  0  0  0  0  0  0
   22.5400  -16.5900    0.0000 C   0  0  0  0  0  0  0  0  0  0  0  0
   24.6400  -21.3500    0.0000 C   0  0  0  0  0  0  0  0  0  0  0  0
   22.6100  -20.1600    0.0000 C   0  0  0  0  0  0  0  0  0  0  0  0
   27.6500  -13.3700    0.0000 C   0  0  0  0  0  0  0  0  0  0  0  0
   24.6400  -13.3700    0.0000 C   0  0  0  0  0  0  0  0  0  0  0  0
   31.0100  -15.8200    0.0000 C   0  0  0  0  0  0  0  0  0  0  0  0
   28.9100  -21.4200    0.0000 C   0  0  0  0  0  0  0  0  0  0  0  0
   21.2800  -15.9600    0.0000 C   0  0  0  0  0  0  0  0  0  0  0  0
   23.3100  -21.3500    0.0000 C   0  0  0  0  0  0  0  0  0  0  0  0
   31.0100  -14.4900    0.0000 C   0  0  0  0  0  0  0  0  0  0  0  0
   32.1300  -16.5200    0.0000 C   0  0  0  0  0  0  0  0  0  0  0  0
   20.0200  -16.7300    0.0000 C   0  0  0  0  0  0  0  0  0  0  0  0
   21.2800  -14.5600    0.0000 O   0  0  0  0  0  0  0  0  0  0  0  0
   22.6100  -22.4700    0.0000 F   0  0  0  0  0  0  0  0  0  0  0  0
   32.1300  -13.7900    0.0000 C   0  0  0  0  0  0  0  0  0  0  0  0
   33.3200  -15.8200    0.0000 C   0  0  0  0  0  0  0  0  0  0  0  0
   18.8300  -15.9600    0.0000 C   0  0  0  0  0  0  0  0  0  0  0  0
   33.3200  -14.4900    0.0000 C   0  0  0  0  0  0  0  0  0  0  0  0
   17.5000  -16.7300    0.0000 C   0  0  0  0  0  0  0  0  0  0  0  0
   18.8300  -14.4900    0.0000 O   0  0  0  0  0  0  0  0  0  0  0  0
   16.2400  -15.9600    0.0000 C   0  0  0  0  0  0  0  0  0  0  0  0
   14.9800  -16.6600    0.0000 O   0  0  0  0  0  0  0  0  0  0  0  0
   16.2400  -14.4900    0.0000 O   0  0  0  0  0  0  0  0  0  0  0  0
  1  2  1  0
  2  3  1  0
  3  4  1  0
  1  4  1  0
  5  2  2  0
  3  6  1  0
  6  7  2  0
  7  8  1  0
  8  9  2  0
  9 10  1  0
 10 11  2  0
  6 11  1  0
  9 12  1  0
  4 13  1  1
 13 14  2  0
 14 15  1  0
 15 16  2  0
 16 17  1  0
 17 18  2  0
 13 18  1  0
 16 19  1  0
  1 20  1  6
 20 21  1  0
 21 22  1  0
 22 23  1  0
 22 24  1  1
 23 25  2  0
 25 26  1  0
 26 27  2  0
 27 28  1  0
 28 29  2  0
 23 29  1  0
 27 30  1  0
 31 32  1  0
 32 33  2  0
 33 34  1  0
 34 35  1  0
 31 35  2  0
 31 36  1  0
 33 37  1  0
 35 38  1  0
 34 39  1  0
 39 40  1  0
 41 40  1  0
 41 42  1  6
 41 43  1  0
 43 44  1  0
 44 45  1  0
 44 46  1  1
 45 47  1  0
 47 48  1  0
 47 49  2  0
 38 50  2  0
 50 51  1  0
 51 52  2  0
 52 53  1  0
 53 54  2  0
 38 54  1  0
 37 55  1  0
 37 56  1  0
 52 57  1  0
 32 58  1  0
 58 59  1  0
 58 60  2  0
 59 61  1  0
 61 62  2  0
 62 63  1  0
 63 64  2  0
 64 65  1  0
 65 66  2  0
 61 66  1  0
 36 67  2  0
 67 68  1  0
 68 69  2  0
 69 70  1  0
 70 71  2  0
 36 71  1  0
 74 75  1  0
 75 76  2  0
 76 77  1  0
 77 78  1  0
 74 78  2  0
 74109  1  0
 76 97  1  0
 78 79  1  0
 77 86  1  0
 86 87  1  0
 88 87  1  0
 88 89  1  6
 88 90  1  0
 90 91  1  0
 91 92  1  0
 91 96  1  1
 92 93  1  0
 93 94  1  0
 93 95  2  0
 79 80  2  0
 80 81  1  0
 81 82  2  0
 82 83  1  0
 83 84  2  0
 79 84  1  0
 97 98  1  0
 97 99  1  0
 82 85  1  0
 75100  1  0
100101  1  0
100108  2  0
101102  1  0
102103  2  0
103104  1  0
104105  2  0
105106  1  0
106107  2  0
102107  1  0
109110  2  0
110111  1  0
111112  2  0
112113  1  0
113114  2  0
109114  1  0
117118  1  0
118119  2  0
119120  1  0
120121  1  0
117121  2  0
117122  1  0
119123  1  0
121124  1  0
120125  1  0
125126  1  0
127126  1  0
127128  1  6
127129  1  0
129130  1  0
130131  1  0
130132  1  1
131133  1  0
133134  1  0
133135  2  0
124136  2  0
136137  1  0
137138  2  0
138139  1  0
139140  2  0
124140  1  0
123141  1  0
123142  1  0
138143  1  0
118144  1  0
144145  1  0
144146  2  0
145147  1  0
147148  2  0
148149  1  0
149150  2  0
150151  1  0
151152  2  0
147152  1  0
122153  2  0
153154  1  0
154155  2  0
155156  1  0
156157  2  0
122157  1  0
159160  1  0
160161  2  0
161162  1  0
162163  1  0
159163  2  0
159194  1  0
161182  1  0
163164  1  0
162171  1  0
171172  1  0
173172  1  0
173174  1  6
173175  1  0
175176  1  0
176177  1  0
176181  1  1
177178  1  0
178179  1  0
178180  2  0
164165  2  0
165166  1  0
166167  2  0
167168  1  0
168169  2  0
164169  1  0
182183  1  0
182184  1  0
167170  1  0
160185  1  0
185186  1  0
185193  2  0
186187  1  0
187188  2  0
188189  1  0
189190  2  0
190191  1  0
191192  2  0
187192  1  0
194195  2  0
195196  1  0
196197  2  0
197198  1  0
198199  2  0
194199  1  0
200201  2  0
200202  1  0
200203  1  0
201204  1  0
201205  1  0
202206  2  0
202207  1  0
203208  2  0
203209  1  0
204210  1  0
205211  2  0
205212  1  0
206213  1  0
207214  1  0
207215  2  0
208216  1  0
209217  2  0
210218  1  0
211219  1  0
212220  2  0
213221  1  0
213222  1  0
214223  1  0
216224  2  0
218225  1  0
219226  2  0
223227  2  0
223228  1  0
225229  1  0
225230  1  6
226231  1  0
227232  1  0
228233  2  0
229234  1  0
232235  2  0
234236  1  0
234237  1  6
236238  1  0
238239  1  0
238240  2  0
204206  1  0
217224  1  0
220226  1  0
233235  1  0
M  CHG  6  48  -1  72   2  94  -1 134  -1 158   2 179  -1
M  END
