 
     RDKit          2D

 89 98  0  0  0  0  0  0  0  0999 V2000
   11.7600  -18.0600    0.0000 C   0  0  0  0  0  0  0  0  0  0  0  0
   11.7600  -19.4600    0.0000 C   0  0  0  0  0  0  0  0  0  0  0  0
   12.9724  -20.1600    0.0000 C   0  0  0  0  0  0  0  0  0  0  0  0
   14.1849  -19.4600    0.0000 C   0  0  0  0  0  0  0  0  0  0  0  0
   14.1849  -18.0600    0.0000 C   0  0  0  0  0  0  0  0  0  0  0  0
   12.9724  -17.3600    0.0000 C   0  0  0  0  0  0  0  0  0  0  0  0
   12.9724  -15.9600    0.0000 C   0  0  0  0  0  0  0  0  0  0  0  0
   12.9724  -14.5600    0.0000 C   0  0  0  0  0  0  0  0  0  0  0  0
   11.3400  -15.9600    0.0000 C   0  0  0  0  0  0  0  0  0  0  0  0
   14.5600  -15.9600    0.0000 N   0  0  0  0  0  0  0  0  0  0  0  0
   10.6400  -14.7476    0.0000 C   0  0  0  0  0  0  0  0  0  0  0  0
    9.2400  -14.7476    0.0000 C   0  0  0  0  0  0  0  0  0  0  0  0
    8.5400  -15.9600    0.0000 C   0  0  0  0  0  0  0  0  0  0  0  0
    9.2400  -17.1724    0.0000 C   0  0  0  0  0  0  0  0  0  0  0  0
   10.6400  -17.1724    0.0000 C   0  0  0  0  0  0  0  0  0  0  0  0
   14.1679  -13.8696    0.0000 C   0  0  0  0  0  0  0  0  0  0  0  0
   14.1678  -12.4696    0.0000 C   0  0  0  0  0  0  0  0  0  0  0  0
   12.9553  -11.7697    0.0000 C   0  0  0  0  0  0  0  0  0  0  0  0
   11.7598  -12.4601    0.0000 C   0  0  0  0  0  0  0  0  0  0  0  0
   11.7599  -13.8601    0.0000 C   0  0  0  0  0  0  0  0  0  0  0  0
   15.3829  -17.0926    0.0000 C   0  0  0  0  0  0  0  0  0  0  0  0
   16.7144  -16.6600    0.0000 N   0  0  0  0  0  0  0  0  0  0  0  0
   16.7144  -15.2600    0.0000 C   0  0  0  0  0  0  0  0  0  0  0  0
   15.3829  -14.8274    0.0000 C   0  0  0  0  0  0  0  0  0  0  0  0
   10.6400  -13.3476    0.0000 Cl  0  0  0  0  0  0  0  0  0  0  0  0
    6.3892  -13.6510    0.0000 C   0  0  0  0  0  0  0  0  0  0  0  0
    6.3892  -15.0117    0.0000 C   0  0  0  0  0  0  0  0  0  0  0  0
    7.5675  -15.6920    0.0000 C   0  0  0  0  0  0  0  0  0  0  0  0
    8.7459  -15.0117    0.0000 C   0  0  0  0  0  0  0  0  0  0  0  0
    8.7459  -13.6510    0.0000 C   0  0  0  0  0  0  0  0  0  0  0  0
    7.5675  -12.9707    0.0000 C   0  0  0  0  0  0  0  0  0  0  0  0
    9.9243  -15.6920    0.0000 C   0  0  0  0  0  0  0  0  0  0  0  0
   11.1026  -15.0117    0.0000 C   0  0  0  0  0  0  0  0  0  0  0  0
   11.1026  -13.6510    0.0000 C   0  0  0  0  0  0  0  0  0  0  0  0
    9.9243  -12.9707    0.0000 C   0  0  0  0  0  0  0  0  0  0  0  0
   12.2810  -12.9707    0.0000 C   0  0  0  0  0  0  0  0  0  0  0  0
   12.2810  -11.6100    0.0000 C   0  0  0  0  0  0  0  0  0  0  0  0
   11.1026  -10.9297    0.0000 C   0  0  0  0  0  0  0  0  0  0  0  0
    9.9243  -11.6100    0.0000 C   0  0  0  0  0  0  0  0  0  0  0  0
   14.6377  -12.9707    0.0000 C   0  0  0  0  0  0  0  0  0  0  0  0
   14.6377  -11.6100    0.0000 C   0  0  0  0  0  0  0  0  0  0  0  0
   13.4594  -10.9297    0.0000 C   0  0  0  0  0  0  0  0  0  0  0  0
    8.7459  -12.2903    0.0000 C   0  0  0  0  0  0  0  0  0  0  0  0
    8.7479  -10.9309    0.0000 O   0  0  0  0  0  0  0  0  0  0  0  0
   12.2810  -10.2494    0.0000 C   0  0  0  0  0  0  0  0  0  0  0  0
   15.8036  -10.9368    0.0000 C   0  0  0  0  0  0  0  0  0  0  0  0
   13.4594   -9.2289    0.0000 C   0  0  0  0  0  0  0  0  0  0  0  0
    9.9243  -14.3313    0.0000 F   0  0  0  0  0  0  0  0  0  0  0  0
   15.2677   -9.8294    0.0000 O   0  0  0  0  0  0  0  0  0  0  0  0
    5.2109  -15.6920    0.0000 O   0  0  0  0  0  0  0  0  0  0  0  0
   14.6417   -8.5463    0.0000 O   0  0  0  0  0  0  0  0  0  0  0  0
   12.2849   -8.5508    0.0000 C   0  0  0  0  0  0  0  0  0  0  0  0
   11.1250   -9.2207    0.0000 O   0  0  0  0  0  0  0  0  0  0  0  0
    9.9245   -8.5280    0.0000 C   0  0  0  0  0  0  0  0  0  0  0  0
    8.7188   -9.2247    0.0000 C   0  0  0  0  0  0  0  0  0  0  0  0
    7.5362   -8.5423    0.0000 C   0  0  0  0  0  0  0  0  0  0  0  0
    9.9243   -7.1401    0.0000 O   0  0  0  0  0  0  0  0  0  0  0  0
   16.6677   -9.8294    0.0000 C   0  0  0  0  0  0  0  0  0  0  0  0
   17.3532  -11.0163    0.0000 O   0  0  0  0  0  0  0  0  0  0  0  0
   17.3786   -8.5985    0.0000 C   0  0  0  0  0  0  0  0  0  0  0  0
   18.7600   -8.5989    0.0000 C   0  0  0  0  0  0  0  0  0  0  0  0
    6.7900  -14.9100    0.0000 C   0  0  0  0  0  0  0  0  0  0  0  0
    6.7900  -16.3100    0.0000 C   0  0  0  0  0  0  0  0  0  0  0  0
    8.0024  -17.0100    0.0000 C   0  0  0  0  0  0  0  0  0  0  0  0
    9.2149  -16.3100    0.0000 C   0  0  0  0  0  0  0  0  0  0  0  0
    9.2149  -14.9100    0.0000 C   0  0  0  0  0  0  0  0  0  0  0  0
    8.0024  -14.2100    0.0000 C   0  0  0  0  0  0  0  0  0  0  0  0
   10.4273  -17.0100    0.0000 C   0  0  0  0  0  0  0  0  0  0  0  0
   11.6397  -16.3100    0.0000 C   0  0  0  0  0  0  0  0  0  0  0  0
   11.6397  -14.9100    0.0000 C   0  0  0  0  0  0  0  0  0  0  0  0
   10.4273  -14.2100    0.0000 C   0  0  0  0  0  0  0  0  0  0  0  0
   12.8522  -14.2100    0.0000 C   0  0  0  0  0  0  0  0  0  0  0  0
   12.8522  -12.8100    0.0000 C   0  0  0  0  0  0  0  0  0  0  0  0
   11.6397  -12.1100    0.0000 C   0  0  0  0  0  0  0  0  0  0  0  0
   10.4273  -12.8100    0.0000 C   0  0  0  0  0  0  0  0  0  0  0  0
   15.2770  -14.2100    0.0000 C   0  0  0  0  0  0  0  0  0  0  0  0
   15.2770  -12.8100    0.0000 C   0  0  0  0  0  0  0  0  0  0  0  0
   14.0646  -12.1100    0.0000 C   0  0  0  0  0  0  0  0  0  0  0  0
    9.2149  -13.5100    0.0000 C   0  0  0  0  0  0  0  0  0  0  0  0
    9.2169  -12.1112    0.0000 O   0  0  0  0  0  0  0  0  0  0  0  0
   12.8522  -11.4100    0.0000 C   0  0  0  0  0  0  0  0  0  0  0  0
   16.4766  -12.1173    0.0000 C   0  0  0  0  0  0  0  0  0  0  0  0
   14.0646  -10.3600    0.0000 C   0  0  0  0  0  0  0  0  0  0  0  0
   10.4273  -15.6100    0.0000 F   0  0  0  0  0  0  0  0  0  0  0  0
   15.2770  -11.4100    0.0000 O   0  0  0  0  0  0  0  0  0  0  0  0
    5.5776  -17.0100    0.0000 O   0  0  0  0  0  0  0  0  0  0  0  0
   15.2811   -9.6577    0.0000 O   0  0  0  0  0  0  0  0  0  0  0  0
   12.8562   -9.6623    0.0000 C   0  0  0  0  0  0  0  0  0  0  0  0
   11.6627  -10.3516    0.0000 O   0  0  0  0  0  0  0  0  0  0  0  0
  1  2  2  0
  2  3  1  0
  3  4  2  0
  4  5  1  0
  5  6  2  0
  1  6  1  0
  6  7  1  0
  7  8  1  0
  7  9  1  0
  7 10  1  0
  9 11  2  0
 11 12  1  0
 12 13  2  0
 13 14  1  0
 14 15  2  0
  9 15  1  0
  8 16  2  0
 16 17  1  0
 17 18  2  0
 18 19  1  0
 19 20  2  0
  8 20  1  0
 10 21  1  0
 21 22  2  0
 22 23  1  0
 23 24  2  0
 10 24  1  0
 11 25  1  0
 26 27  1  0
 27 28  1  0
 28 29  2  0
 29 30  1  0
 30 31  1  0
 26 31  2  0
 29 32  1  0
 32 33  1  0
 34 33  1  6
 34 35  1  0
 30 35  1  0
 34 36  1  0
 36 37  1  0
 37 38  1  0
 38 39  1  0
 35 39  1  0
 36 40  1  1
 40 41  1  0
 41 42  1  0
 37 42  1  0
 30 43  1  1
 39 44  1  1
 37 45  1  1
 41 46  1  1
 42 47  1  0
 35 48  1  6
 42 49  1  6
 27 50  2  0
 47 51  2  0
 47 52  1  0
 52 53  1  0
 53 54  1  0
 54 55  1  0
 55 56  1  0
 54 57  2  0
 49 58  1  0
 58 59  2  0
 58 60  1  0
 60 61  1  0
 62 63  1  0
 63 64  1  0
 64 65  2  0
 65 66  1  0
 66 67  1  0
 62 67  2  0
 65 68  1  0
 68 69  1  0
 70 69  1  6
 70 71  1  0
 66 71  1  0
 70 72  1  0
 72 73  1  0
 73 74  1  0
 74 75  1  0
 71 75  1  0
 72 76  1  1
 76 77  1  0
 77 78  1  0
 73 78  1  0
 66 79  1  1
 75 80  1  1
 73 81  1  1
 77 82  1  1
 78 83  1  0
 71 84  1  6
 78 85  1  6
 63 86  2  0
 83 87  2  0
 83 88  1  0
 88 89  1  0
M  END
