 
     RDKit          2D

 49 55  0  0  1  0  0  0  0  0999 V2000
   21.9420  -17.7494    0.0000 C   0  0  0  0  0  0  0  0  0  0  0  0
   23.0600  -18.4480    0.0000 C   0  0  0  0  0  0  0  0  0  0  0  0
   21.9420  -16.3519    0.0000 C   0  0  0  0  0  0  0  0  0  0  0  0
   20.6843  -18.4480    0.0000 C   0  0  0  0  0  0  0  0  0  0  0  0
   24.3178  -17.7494    0.0000 C   0  0  0  0  0  0  0  0  0  0  0  0
   23.0600  -19.7757    0.0000 C   0  0  0  0  0  0  0  0  0  0  0  0
   23.1299  -15.7230    0.0000 C   0  0  0  0  0  0  0  0  0  0  0  0
   20.6843  -19.7757    0.0000 C   0  0  0  0  0  0  0  0  0  0  0  0
   19.5664  -17.7494    0.0000 C   0  0  0  0  0  0  0  0  0  0  0  0
   24.3177  -16.4217    0.0000 C   0  0  0  0  0  0  0  0  0  0  0  0
   21.8722  -20.4744    0.0000 C   0  0  0  0  0  0  0  0  0  0  0  0
   19.5664  -20.4744    0.0000 C   0  0  0  0  0  0  0  0  0  0  0  0
   18.3785  -18.4480    0.0000 C   0  0  0  0  0  0  0  0  0  0  0  0
   18.3785  -19.7757    0.0000 C   0  0  0  0  0  0  0  0  0  0  0  0
   17.1906  -20.4744    0.0000 O   0  0  0  0  0  0  0  0  0  0  0  0
   24.3177  -14.7448    0.0000 C   0  0  0  0  0  0  0  0  0  0  0  0
   26.6235  -17.7494    0.0000 C   0  0  0  0  0  0  0  0  0  0  0  0
   26.6235  -16.4217    0.0000 C   0  0  0  0  0  0  0  0  0  0  0  0
   25.5055  -15.7929    0.0000 C   0  0  0  0  0  0  0  0  0  0  0  0
   25.5055  -14.1853    0.0000 O   0  0  0  0  0  0  0  0  0  0  0  0
   26.7168  -15.0936    0.0000 C   0  0  0  0  0  0  0  0  0  0  0  0
   28.1155  -15.0936    0.0000 C   0  0  0  0  0  0  0  0  0  0  0  0
   29.5155  -15.0936    0.0000 N   0  0  0  0  0  0  0  0  0  0  0  0
   21.7770  -18.3828    0.0000 C   0  0  0  0  0  0  0  0  0  0  0  0
   20.5804  -19.0567    0.0000 C   0  0  0  0  0  0  0  0  0  0  0  0
   21.7886  -17.0060    0.0000 C   0  0  0  0  0  0  0  0  0  0  0  0
   24.1646  -18.4002    0.0000 C   0  0  0  0  0  0  0  0  0  0  0  0
   19.3954  -18.3596    0.0000 C   0  0  0  0  0  0  0  0  0  0  0  0
   20.5804  -20.4276    0.0000 C   0  0  0  0  0  0  0  0  0  0  0  0
   22.9854  -16.3321    0.0000 C   0  0  0  0  0  0  0  0  0  0  0  0
   20.6036  -16.3148    0.0000 C   0  0  0  0  0  0  0  0  0  0  0  0
   21.7364  -15.7861    0.0000 C   0  0  0  0  0  0  0  0  0  0  0  0
   24.1762  -17.0292    0.0000 C   0  0  0  0  0  0  0  0  0  0  0  0
   18.1987  -19.0392    0.0000 C   0  0  0  0  0  0  0  0  0  0  0  0
   19.4069  -16.9827    0.0000 C   0  0  0  0  0  0  0  0  0  0  0  0
   19.3895  -21.1131    0.0000 C   0  0  0  0  0  0  0  0  0  0  0  0
   22.9738  -14.9555    0.0000 O   0  0  0  0  0  0  0  0  0  0  0  0
   18.1929  -20.4160    0.0000 C   0  0  0  0  0  0  0  0  0  0  0  0
   17.0194  -18.3537    0.0000 C   0  0  0  0  0  0  0  0  0  0  0  0
   17.0194  -21.1072    0.0000 C   0  0  0  0  0  0  0  0  0  0  0  0
   15.8286  -19.0392    0.0000 C   0  0  0  0  0  0  0  0  0  0  0  0
   15.8286  -20.4160    0.0000 C   0  0  0  0  0  0  0  0  0  0  0  0
   14.6261  -21.1072    0.0000 O   0  0  0  0  0  0  0  0  0  0  0  0
   24.1719  -14.2605    0.0000 C   0  0  0  0  0  0  0  0  0  0  0  0
   25.3722  -14.9485    0.0000 C   0  0  0  0  0  0  0  0  0  0  0  0
   26.5725  -14.2536    0.0000 C   0  0  0  0  0  0  0  0  0  0  0  0
   27.7727  -14.9415    0.0000 C   0  0  0  0  0  0  0  0  0  0  0  0
   24.1648  -12.8707    0.0000 O   0  0  0  0  0  0  0  0  0  0  0  0
   28.9742  -14.2427    0.0000 C   0  0  0  0  0  0  0  0  0  0  0  0
  1  2  1  0
  1  3  1  0
  1  4  2  0
  2  6  1  6
  3  7  1  0
  4  8  1  0
  4  9  1  0
  6 11  1  0
  8 12  2  0
  9 13  1  0
 12 14  1  0
 14 15  2  0
  7 10  1  0
  8 11  1  0
 13 14  1  0
 10 16  1  1
 17 18  1  0
 18 19  1  0
 10 19  1  0
 19 20  1  1
  5 10  1  0
  5 17  1  1
  2  5  1  0
 19 21  1  0
 21 22  1  0
 22 23  3  0
 30 33  1  0
 31 35  1  0
 36 38  1  0
 41 42  1  0
 24 25  1  0
 24 26  1  0
 24 27  1  1
 25 28  1  0
 25 29  1  6
 26 30  1  0
 26 31  1  0
 26 32  1  1
 27 33  1  0
 28 34  1  0
 28 35  1  1
 29 36  1  0
 30 37  1  1
 34 38  2  0
 37 44  1  0
 34 39  1  0
 44 45  1  0
 38 40  1  0
 45 46  1  0
 39 41  2  0
 46 47  1  0
 40 42  2  0
 44 48  2  0
 42 43  1  0
 47 49  1  0
M  END
