71300755
     RDKit          2D

416425  0  0  1  0  0  0  0  0999 V2000
   16.3933   -2.8971    0.0000 S   0  0  0  0  0  0  0  0  0  0  0  0
   16.3933   -1.8971    0.0000 S   0  0  0  0  0  0  0  0  0  0  0  0
   33.0485  -13.4006    0.0000 S   0  0  0  0  0  0  0  0  0  0  0  0
   32.7856   11.1029    0.0000 S   0  0  0  0  0  0  0  0  0  0  0  0
   32.7856   12.1029    0.0000 S   0  0  0  0  0  0  0  0  0  0  0  0
   12.0632   -4.3971    0.0000 S   0  0  0  0  0  0  0  0  0  0  0  0
   11.1972   -4.8971    0.0000 S   0  0  0  0  0  0  0  0  0  0  0  0
   27.3215   12.1029    0.0000 S   0  0  0  0  0  0  0  0  0  0  0  0
   24.1474   -5.9042    0.0000 O   0  0  0  0  0  0  0  0  0  0  0  0
   25.8597   -9.1878    0.0000 O   0  0  0  0  0  0  0  0  0  0  0  0
   20.7251   -7.3190    0.0000 O   0  0  0  0  0  0  0  0  0  0  0  0
   29.2820   -7.7730    0.0000 O   0  0  0  0  0  0  0  0  0  0  0  0
   19.0129   -4.0354    0.0000 O   0  0  0  0  0  0  0  0  0  0  0  0
   30.9942  -11.0567    0.0000 O   0  0  0  0  0  0  0  0  0  0  0  0
   26.9291  -11.7054    0.0000 O   0  0  0  0  0  0  0  0  0  0  0  0
   16.3933   -5.8971    0.0000 O   0  0  0  0  0  0  0  0  0  0  0  0
   28.5567  -12.2978    0.0000 O   0  0  0  0  0  0  0  0  0  0  0  0
   34.4166   -9.6418    0.0000 O   0  0  0  0  0  0  0  0  0  0  0  0
   27.5850    3.6029    0.0000 O   0  0  0  0  0  0  0  0  0  0  0  0
   30.3171    1.1029    0.0000 O   0  0  0  0  0  0  0  0  0  0  0  0
   24.8530    1.1029    0.0000 O   0  0  0  0  0  0  0  0  0  0  0  0
   31.7195   -6.5318    0.0000 O   0  0  0  0  0  0  0  0  0  0  0  0
   41.2453    1.1029    0.0000 O   0  0  0  0  0  0  0  0  0  0  0  0
   38.5132    3.6029    0.0000 O   0  0  0  0  0  0  0  0  0  0  0  0
   33.3471   -7.1242    0.0000 O   0  0  0  0  0  0  0  0  0  0  0  0
   22.1209    3.6029    0.0000 O   0  0  0  0  0  0  0  0  0  0  0  0
   33.0491    3.6029    0.0000 O   0  0  0  0  0  0  0  0  0  0  0  0
   36.1288  -12.9255    0.0000 O   0  0  0  0  0  0  0  0  0  0  0  0
   14.9621  -21.6029    0.0000 O   0  0  0  0  0  0  0  0  0  0  0  0
   19.3889    1.1029    0.0000 O   0  0  0  0  0  0  0  0  0  0  0  0
   38.2497    8.1029    0.0000 O   0  0  0  0  0  0  0  0  0  0  0  0
   18.4053  -23.3347    0.0000 O   0  0  0  0  0  0  0  0  0  0  0  0
   14.0961  -21.1029    0.0000 O   0  0  0  0  0  0  0  0  0  0  0  0
   35.5177   10.6029    0.0000 O   0  0  0  0  0  0  0  0  0  0  0  0
   35.7812    1.1029    0.0000 O   0  0  0  0  0  0  0  0  0  0  0  0
   25.7190    5.6029    0.0000 O   0  0  0  0  0  0  0  0  0  0  0  0
   36.5495  -20.5279    0.0000 O   0  0  0  0  0  0  0  0  0  0  0  0
   23.9869    5.6029    0.0000 O   0  0  0  0  0  0  0  0  0  0  0  0
   14.0961  -20.1029    0.0000 O   0  0  0  0  0  0  0  0  0  0  0  0
   13.7953   -0.3971    0.0000 O   0  0  0  0  0  0  0  0  0  0  0  0
   39.3792   -0.8971    0.0000 O   0  0  0  0  0  0  0  0  0  0  0  0
   32.7856    8.1029    0.0000 O   0  0  0  0  0  0  0  0  0  0  0  0
   37.5756  -17.7088    0.0000 O   0  0  0  0  0  0  0  0  0  0  0  0
   12.7953   -3.3971    0.0000 O   0  0  0  0  0  0  0  0  0  0  0  0
   11.6973   -2.7631    0.0000 O   0  0  0  0  0  0  0  0  0  0  0  0
   14.9621  -19.6029    0.0000 O   0  0  0  0  0  0  0  0  0  0  0  0
   13.2301  -16.6029    0.0000 O   0  0  0  0  0  0  0  0  0  0  0  0
   34.8373  -17.2442    0.0000 O   0  0  0  0  0  0  0  0  0  0  0  0
   13.1113   -6.2766    0.0000 O   0  0  0  0  0  0  0  0  0  0  0  0
    8.0339  -21.6029    0.0000 O   0  0  0  0  0  0  0  0  0  0  0  0
    8.5991   -0.3971    0.0000 O   0  0  0  0  0  0  0  0  0  0  0  0
   16.6941  -15.6029    0.0000 O   0  0  0  0  0  0  0  0  0  0  0  0
    7.7331  -10.8971    0.0000 O   0  0  0  0  0  0  0  0  0  0  0  0
   17.5601  -12.1029    0.0000 O   0  0  0  0  0  0  0  0  0  0  0  0
   13.2300   -7.6029    0.0000 O   0  0  0  0  0  0  0  0  0  0  0  0
   30.0536   10.6029    0.0000 O   0  0  0  0  0  0  0  0  0  0  0  0
    9.4651   -8.8971    0.0000 O   0  0  0  0  0  0  0  0  0  0  0  0
    4.2690  -11.8971    0.0000 O   0  0  0  0  0  0  0  0  0  0  0  0
    6.8671   -7.3971    0.0000 O   0  0  0  0  0  0  0  0  0  0  0  0
   31.0536   21.1029    0.0000 O   0  0  0  0  0  0  0  0  0  0  0  0
    4.0892  -15.8808    0.0000 O   0  0  0  0  0  0  0  0  0  0  0  0
   10.3312   -6.3971    0.0000 O   0  0  0  0  0  0  0  0  0  0  0  0
    2.5369  -13.8971    0.0000 O   0  0  0  0  0  0  0  0  0  0  0  0
   14.0961  -11.1029    0.0000 O   0  0  0  0  0  0  0  0  0  0  0  0
   31.8416  -20.4106    0.0000 O   0  0  0  0  0  0  0  0  0  0  0  0
    9.4651   -2.8971    0.0000 O   0  0  0  0  0  0  0  0  0  0  0  0
   33.6517   16.6029    0.0000 O   0  0  0  0  0  0  0  0  0  0  0  0
   33.6517   15.6029    0.0000 O   0  0  0  0  0  0  0  0  0  0  0  0
   34.5177   20.1029    0.0000 O   0  0  0  0  0  0  0  0  0  0  0  0
   31.5409  -18.7049    0.0000 O   0  0  0  0  0  0  0  0  0  0  0  0
   32.7856   15.1029    0.0000 O   0  0  0  0  0  0  0  0  0  0  0  0
   27.3215    8.1029    0.0000 O   0  0  0  0  0  0  0  0  0  0  0  0
   31.9196   13.6029    0.0000 O   0  0  0  0  0  0  0  0  0  0  0  0
   12.3641   -8.1029    0.0000 O   0  0  0  0  0  0  0  0  0  0  0  0
   24.5895    7.6029    0.0000 O   0  0  0  0  0  0  0  0  0  0  0  0
   24.5895   10.6029    0.0000 O   0  0  0  0  0  0  0  0  0  0  0  0
   21.8574   11.1029    0.0000 O   0  0  0  0  0  0  0  0  0  0  0  0
   21.8574    8.1029    0.0000 O   0  0  0  0  0  0  0  0  0  0  0  0
   19.1254   10.6029    0.0000 O   0  0  0  0  0  0  0  0  0  0  0  0
   16.3933   11.1029    0.0000 O   0  0  0  0  0  0  0  0  0  0  0  0
   15.5273    9.6029    0.0000 O   0  0  0  0  0  0  0  0  0  0  0  0
   16.3933    8.1029    0.0000 O   0  0  0  0  0  0  0  0  0  0  0  0
   25.4330   -7.4363    0.0000 N   0  0  0  0  0  0  0  0  0  0  0  0
   22.6947   -6.9717    0.0000 N   0  0  0  0  0  0  0  0  0  0  0  0
   27.8293   -8.8405    0.0000 N   0  0  0  0  0  0  0  0  0  0  0  0
   20.2984   -5.5674    0.0000 N   0  0  0  0  0  0  0  0  0  0  0  0
   30.5676   -9.3051    0.0000 N   0  0  0  0  0  0  0  0  0  0  0  0
   17.5601   -5.1029    0.0000 N   0  0  0  0  0  0  0  0  0  0  0  0
   20.4656   -2.9678    0.0000 N   0  0  0  0  0  0  0  0  0  0  0  0
   32.9639  -10.7094    0.0000 N   0  0  0  0  0  0  0  0  0  0  0  0
   28.5850    2.1029    0.0000 N   0  0  0  0  0  0  0  0  0  0  0  0
   25.8530    2.6029    0.0000 N   0  0  0  0  0  0  0  0  0  0  0  0
   17.6568    2.1029    0.0000 N   0  0  0  0  0  0  0  0  0  0  0  0
   31.3171    2.6029    0.0000 N   0  0  0  0  0  0  0  0  0  0  0  0
   39.5132    2.1029    0.0000 N   0  0  0  0  0  0  0  0  0  0  0  0
   35.7022  -11.1739    0.0000 N   0  0  0  0  0  0  0  0  0  0  0  0
   23.1209    2.1029    0.0000 N   0  0  0  0  0  0  0  0  0  0  0  0
   20.3889    2.6029    0.0000 N   0  0  0  0  0  0  0  0  0  0  0  0
   39.9818    9.1029    0.0000 N   0  0  0  0  0  0  0  0  0  0  0  0
   14.0961  -23.1029    0.0000 N   0  0  0  0  0  0  0  0  0  0  0  0
   37.2497    9.6029    0.0000 N   0  0  0  0  0  0  0  0  0  0  0  0
   16.7416  -22.6961    0.0000 N   0  0  0  0  0  0  0  0  0  0  0  0
   36.7812    2.6029    0.0000 N   0  0  0  0  0  0  0  0  0  0  0  0
   34.0491    2.1029    0.0000 N   0  0  0  0  0  0  0  0  0  0  0  0
   38.0984  -12.5782    0.0000 N   0  0  0  0  0  0  0  0  0  0  0  0
   12.3641  -21.1029    0.0000 N   0  0  0  0  0  0  0  0  0  0  0  0
   34.5177    9.1029    0.0000 N   0  0  0  0  0  0  0  0  0  0  0  0
   34.7812    0.6029    0.0000 N   0  0  0  0  0  0  0  0  0  0  0  0
   40.2022   -9.9408    0.0000 N   0  0  0  0  0  0  0  0  0  0  0  0
   14.6613   -2.8971    0.0000 N   0  0  0  0  0  0  0  0  0  0  0  0
   22.9869   -0.8971    0.0000 N   0  0  0  0  0  0  0  0  0  0  0  0
   12.9292   -1.8971    0.0000 N   0  0  0  0  0  0  0  0  0  0  0  0
   13.2301  -18.6029    0.0000 N   0  0  0  0  0  0  0  0  0  0  0  0
   35.2640  -18.9958    0.0000 N   0  0  0  0  0  0  0  0  0  0  0  0
   31.7856    9.6029    0.0000 N   0  0  0  0  0  0  0  0  0  0  0  0
   37.6472   -0.8971    0.0000 N   0  0  0  0  0  0  0  0  0  0  0  0
   14.4381   -5.1632    0.0000 N   0  0  0  0  0  0  0  0  0  0  0  0
   10.3312   -1.3971    0.0000 N   0  0  0  0  0  0  0  0  0  0  0  0
   14.9621  -16.6029    0.0000 N   0  0  0  0  0  0  0  0  0  0  0  0
   35.6472   -0.8971    0.0000 N   0  0  0  0  0  0  0  0  0  0  0  0
   14.9621   -7.6029    0.0000 N   0  0  0  0  0  0  0  0  0  0  0  0
   15.8281  -14.1029    0.0000 N   0  0  0  0  0  0  0  0  0  0  0  0
   33.9151   -0.8971    0.0000 N   0  0  0  0  0  0  0  0  0  0  0  0
   24.7190   -0.8971    0.0000 N   0  0  0  0  0  0  0  0  0  0  0  0
   11.9699    1.3824    0.0000 N   0  0  0  0  0  0  0  0  0  0  0  0
    6.0010  -10.8971    0.0000 N   0  0  0  0  0  0  0  0  0  0  0  0
    7.7331   -8.8971    0.0000 N   0  0  0  0  0  0  0  0  0  0  0  0
   23.8530    0.6029    0.0000 N   0  0  0  0  0  0  0  0  0  0  0  0
    7.7331   -1.8971    0.0000 N   0  0  0  0  0  0  0  0  0  0  0  0
   31.0536   23.1029    0.0000 N   0  0  0  0  0  0  0  0  0  0  0  0
   15.8281  -12.1029    0.0000 N   0  0  0  0  0  0  0  0  0  0  0  0
    5.1350  -13.3971    0.0000 N   0  0  0  0  0  0  0  0  0  0  0  0
   29.0536    9.1029    0.0000 N   0  0  0  0  0  0  0  0  0  0  0  0
    8.5991   -6.3971    0.0000 N   0  0  0  0  0  0  0  0  0  0  0  0
   14.9621   -9.6029    0.0000 N   0  0  0  0  0  0  0  0  0  0  0  0
   32.8677  -17.5915    0.0000 N   0  0  0  0  0  0  0  0  0  0  0  0
    8.5991   -4.3971    0.0000 N   0  0  0  0  0  0  0  0  0  0  0  0
   32.7856   21.1029    0.0000 N   0  0  0  0  0  0  0  0  0  0  0  0
   10.3608    1.5516    0.0000 N   0  0  0  0  0  0  0  0  0  0  0  0
   34.5177   14.1029    0.0000 N   0  0  0  0  0  0  0  0  0  0  0  0
   33.6517   18.6029    0.0000 N   0  0  0  0  0  0  0  0  0  0  0  0
   35.3837   16.6029    0.0000 N   0  0  0  0  0  0  0  0  0  0  0  0
   17.4557   -9.6953    0.0000 N   0  0  0  0  0  0  0  0  0  0  0  0
    7.7331  -14.8971    0.0000 N   0  0  0  0  0  0  0  0  0  0  0  0
   26.3215    9.6029    0.0000 N   0  0  0  0  0  0  0  0  0  0  0  0
    2.5369   -8.8971    0.0000 N   0  0  0  0  0  0  0  0  0  0  0  0
   36.2497   21.1029    0.0000 N   0  0  0  0  0  0  0  0  0  0  0  0
   11.4981   -9.6029    0.0000 N   0  0  0  0  0  0  0  0  0  0  0  0
   23.5895    9.1029    0.0000 N   0  0  0  0  0  0  0  0  0  0  0  0
   20.8574    9.6029    0.0000 N   0  0  0  0  0  0  0  0  0  0  0  0
    8.5991  -16.3971    0.0000 N   0  0  0  0  0  0  0  0  0  0  0  0
    9.4651  -14.8971    0.0000 N   0  0  0  0  0  0  0  0  0  0  0  0
   37.1158   22.6029    0.0000 N   0  0  0  0  0  0  0  0  0  0  0  0
   18.1254    9.1029    0.0000 N   0  0  0  0  0  0  0  0  0  0  0  0
   17.5505    7.2710    0.0000 N   0  0  0  0  0  0  0  0  0  0  0  0
   37.9818   21.1029    0.0000 N   0  0  0  0  0  0  0  0  0  0  0  0
   24.4482   -7.6099    0.0000 C   0  0  0  0  0  0  0  0  0  0  0  0
   24.1062   -8.5496    0.0000 C   0  0  0  0  0  0  0  0  0  0  0  0
   23.1214   -8.7233    0.0000 C   0  0  0  0  0  0  0  0  0  0  0  0
   22.0519   -6.2056    0.0000 C   0  0  0  0  0  0  0  0  0  0  0  0
   27.1865   -8.0745    0.0000 C   0  0  0  0  0  0  0  0  0  0  0  0
   23.8054   -6.8439    0.0000 C   0  0  0  0  0  0  0  0  0  0  0  0
   27.5285   -7.1348    0.0000 C   0  0  0  0  0  0  0  0  0  0  0  0
   22.3939   -5.2660    0.0000 C   0  0  0  0  0  0  0  0  0  0  0  0
   24.7490   -9.3156    0.0000 C   0  0  0  0  0  0  0  0  0  0  0  0
   26.2017   -8.2481    0.0000 C   0  0  0  0  0  0  0  0  0  0  0  0
   21.7512   -4.4999    0.0000 C   0  0  0  0  0  0  0  0  0  0  0  0
   19.3136   -5.7411    0.0000 C   0  0  0  0  0  0  0  0  0  0  0  0
   21.0671   -6.3793    0.0000 C   0  0  0  0  0  0  0  0  0  0  0  0
   18.9716   -6.6808    0.0000 C   0  0  0  0  0  0  0  0  0  0  0  0
   22.7794   -9.6630    0.0000 C   0  0  0  0  0  0  0  0  0  0  0  0
   17.9868   -6.8544    0.0000 C   0  0  0  0  0  0  0  0  0  0  0  0
   26.8857   -6.3688    0.0000 C   0  0  0  0  0  0  0  0  0  0  0  0
   28.5133   -6.9611    0.0000 C   0  0  0  0  0  0  0  0  0  0  0  0
   22.0932   -3.5602    0.0000 C   0  0  0  0  0  0  0  0  0  0  0  0
   29.5828   -9.4788    0.0000 C   0  0  0  0  0  0  0  0  0  0  0  0
   28.9400   -8.7127    0.0000 C   0  0  0  0  0  0  0  0  0  0  0  0
   18.6708   -4.9750    0.0000 C   0  0  0  0  0  0  0  0  0  0  0  0
   29.2408  -10.4184    0.0000 C   0  0  0  0  0  0  0  0  0  0  0  0
   21.4504   -2.7942    0.0000 C   0  0  0  0  0  0  0  0  0  0  0  0
   17.6448   -7.7941    0.0000 C   0  0  0  0  0  0  0  0  0  0  0  0
   17.3440   -6.0884    0.0000 C   0  0  0  0  0  0  0  0  0  0  0  0
   16.9174   -4.3368    0.0000 C   0  0  0  0  0  0  0  0  0  0  0  0
   28.2559  -10.5921    0.0000 C   0  0  0  0  0  0  0  0  0  0  0  0
   32.3211   -9.9433    0.0000 C   0  0  0  0  0  0  0  0  0  0  0  0
   31.3363  -10.1170    0.0000 C   0  0  0  0  0  0  0  0  0  0  0  0
   32.6631   -9.0036    0.0000 C   0  0  0  0  0  0  0  0  0  0  0  0
   17.2594   -3.3971    0.0000 C   0  0  0  0  0  0  0  0  0  0  0  0
   16.3933   -4.8971    0.0000 C   0  0  0  0  0  0  0  0  0  0  0  0
   26.7190    2.1029    0.0000 C   0  0  0  0  0  0  0  0  0  0  0  0
   29.4510    2.6029    0.0000 C   0  0  0  0  0  0  0  0  0  0  0  0
   26.7190    1.1029    0.0000 C   0  0  0  0  0  0  0  0  0  0  0  0
   27.9139  -11.5318    0.0000 C   0  0  0  0  0  0  0  0  0  0  0  0
   29.4510    3.6029    0.0000 C   0  0  0  0  0  0  0  0  0  0  0  0
   32.0203   -8.2376    0.0000 C   0  0  0  0  0  0  0  0  0  0  0  0
   27.5850    0.6029    0.0000 C   0  0  0  0  0  0  0  0  0  0  0  0
   34.7174  -11.3476    0.0000 C   0  0  0  0  0  0  0  0  0  0  0  0
   40.3792    3.6029    0.0000 C   0  0  0  0  0  0  0  0  0  0  0  0
   40.3792    2.6029    0.0000 C   0  0  0  0  0  0  0  0  0  0  0  0
   34.0746  -10.5815    0.0000 C   0  0  0  0  0  0  0  0  0  0  0  0
   27.5850    2.6029    0.0000 C   0  0  0  0  0  0  0  0  0  0  0  0
   23.9869    2.6029    0.0000 C   0  0  0  0  0  0  0  0  0  0  0  0
   32.1831    2.1029    0.0000 C   0  0  0  0  0  0  0  0  0  0  0  0
   30.3171    2.1029    0.0000 C   0  0  0  0  0  0  0  0  0  0  0  0
   34.3753  -12.2873    0.0000 C   0  0  0  0  0  0  0  0  0  0  0  0
   41.2453    4.1029    0.0000 C   0  0  0  0  0  0  0  0  0  0  0  0
   24.8530    2.1029    0.0000 C   0  0  0  0  0  0  0  0  0  0  0  0
   21.2549    2.1029    0.0000 C   0  0  0  0  0  0  0  0  0  0  0  0
   36.3837    8.1029    0.0000 C   0  0  0  0  0  0  0  0  0  0  0  0
   32.1831    1.1029    0.0000 C   0  0  0  0  0  0  0  0  0  0  0  0
   15.8281  -23.1029    0.0000 C   0  0  0  0  0  0  0  0  0  0  0  0
   36.3837    9.1029    0.0000 C   0  0  0  0  0  0  0  0  0  0  0  0
   30.3171    4.1029    0.0000 C   0  0  0  0  0  0  0  0  0  0  0  0
   28.5850    4.1029    0.0000 C   0  0  0  0  0  0  0  0  0  0  0  0
   13.2301  -22.6029    0.0000 C   0  0  0  0  0  0  0  0  0  0  0  0
   18.5228    2.6029    0.0000 C   0  0  0  0  0  0  0  0  0  0  0  0
   27.5850   -0.3971    0.0000 C   0  0  0  0  0  0  0  0  0  0  0  0
   28.4510    1.1029    0.0000 C   0  0  0  0  0  0  0  0  0  0  0  0
   37.6472    2.1029    0.0000 C   0  0  0  0  0  0  0  0  0  0  0  0
   41.2453    2.1029    0.0000 C   0  0  0  0  0  0  0  0  0  0  0  0
   23.9869    3.6029    0.0000 C   0  0  0  0  0  0  0  0  0  0  0  0
   12.3641  -23.1029    0.0000 C   0  0  0  0  0  0  0  0  0  0  0  0
   39.5132    4.1029    0.0000 C   0  0  0  0  0  0  0  0  0  0  0  0
   15.9326  -24.0974    0.0000 C   0  0  0  0  0  0  0  0  0  0  0  0
   21.2549    1.1029    0.0000 C   0  0  0  0  0  0  0  0  0  0  0  0
   12.3641  -24.1029    0.0000 C   0  0  0  0  0  0  0  0  0  0  0  0
   37.4556  -11.8122    0.0000 C   0  0  0  0  0  0  0  0  0  0  0  0
   32.3623   -7.2979    0.0000 C   0  0  0  0  0  0  0  0  0  0  0  0
   38.5132    2.6029    0.0000 C   0  0  0  0  0  0  0  0  0  0  0  0
   39.1158    9.6029    0.0000 C   0  0  0  0  0  0  0  0  0  0  0  0
   22.1209    2.6029    0.0000 C   0  0  0  0  0  0  0  0  0  0  0  0
   33.0491    0.6029    0.0000 C   0  0  0  0  0  0  0  0  0  0  0  0
   33.0491    2.6029    0.0000 C   0  0  0  0  0  0  0  0  0  0  0  0
   16.9108  -24.3053    0.0000 C   0  0  0  0  0  0  0  0  0  0  0  0
   35.5177    7.6029    0.0000 C   0  0  0  0  0  0  0  0  0  0  0  0
   36.4708  -11.9858    0.0000 C   0  0  0  0  0  0  0  0  0  0  0  0
   33.3905  -12.4609    0.0000 C   0  0  0  0  0  0  0  0  0  0  0  0
   14.9621  -22.6029    0.0000 C   0  0  0  0  0  0  0  0  0  0  0  0
   37.6472    1.1029    0.0000 C   0  0  0  0  0  0  0  0  0  0  0  0
   19.3889    2.1029    0.0000 C   0  0  0  0  0  0  0  0  0  0  0  0
   34.9151    2.6029    0.0000 C   0  0  0  0  0  0  0  0  0  0  0  0
   41.2453    5.1029    0.0000 C   0  0  0  0  0  0  0  0  0  0  0  0
   37.7977  -10.8725    0.0000 C   0  0  0  0  0  0  0  0  0  0  0  0
   22.1209    0.6029    0.0000 C   0  0  0  0  0  0  0  0  0  0  0  0
   38.2497    9.1029    0.0000 C   0  0  0  0  0  0  0  0  0  0  0  0
   24.8530    4.1029    0.0000 C   0  0  0  0  0  0  0  0  0  0  0  0
   37.2497    7.6029    0.0000 C   0  0  0  0  0  0  0  0  0  0  0  0
   17.4108  -23.4393    0.0000 C   0  0  0  0  0  0  0  0  0  0  0  0
   13.2301  -21.6029    0.0000 C   0  0  0  0  0  0  0  0  0  0  0  0
   35.5177    9.6029    0.0000 C   0  0  0  0  0  0  0  0  0  0  0  0
   35.7812    2.1029    0.0000 C   0  0  0  0  0  0  0  0  0  0  0  0
   33.9151    1.1029    0.0000 C   0  0  0  0  0  0  0  0  0  0  0  0
   11.4980  -24.6029    0.0000 C   0  0  0  0  0  0  0  0  0  0  0  0
   13.2301  -24.6029    0.0000 C   0  0  0  0  0  0  0  0  0  0  0  0
   38.7825  -10.6988    0.0000 C   0  0  0  0  0  0  0  0  0  0  0  0
   38.5132    0.6029    0.0000 C   0  0  0  0  0  0  0  0  0  0  0  0
   39.1158   10.6029    0.0000 C   0  0  0  0  0  0  0  0  0  0  0  0
   12.3641  -20.1029    0.0000 C   0  0  0  0  0  0  0  0  0  0  0  0
   15.5273   -1.3971    0.0000 C   0  0  0  0  0  0  0  0  0  0  0  0
   22.1209   -0.3971    0.0000 C   0  0  0  0  0  0  0  0  0  0  0  0
   35.5177    6.6029    0.0000 C   0  0  0  0  0  0  0  0  0  0  0  0
   14.6613   -1.8971    0.0000 C   0  0  0  0  0  0  0  0  0  0  0  0
   34.9151    3.6029    0.0000 C   0  0  0  0  0  0  0  0  0  0  0  0
   39.4970  -11.3900    0.0000 C   0  0  0  0  0  0  0  0  0  0  0  0
   33.6517    9.6029    0.0000 C   0  0  0  0  0  0  0  0  0  0  0  0
   11.4980  -19.6029    0.0000 C   0  0  0  0  0  0  0  0  0  0  0  0
   39.2175   -9.8050    0.0000 C   0  0  0  0  0  0  0  0  0  0  0  0
   36.8916  -19.5882    0.0000 C   0  0  0  0  0  0  0  0  0  0  0  0
   40.3791  -10.9190    0.0000 C   0  0  0  0  0  0  0  0  0  0  0  0
   24.8530    5.1029    0.0000 C   0  0  0  0  0  0  0  0  0  0  0  0
   13.2301  -19.6029    0.0000 C   0  0  0  0  0  0  0  0  0  0  0  0
   36.2488  -18.8221    0.0000 C   0  0  0  0  0  0  0  0  0  0  0  0
   13.7953   -1.3971    0.0000 C   0  0  0  0  0  0  0  0  0  0  0  0
   38.5132   -0.3971    0.0000 C   0  0  0  0  0  0  0  0  0  0  0  0
   33.6517   10.6029    0.0000 C   0  0  0  0  0  0  0  0  0  0  0  0
   10.6320  -20.1029    0.0000 C   0  0  0  0  0  0  0  0  0  0  0  0
   39.4638  -12.3894    0.0000 C   0  0  0  0  0  0  0  0  0  0  0  0
   12.0632   -1.3971    0.0000 C   0  0  0  0  0  0  0  0  0  0  0  0
   32.7856    9.1029    0.0000 C   0  0  0  0  0  0  0  0  0  0  0  0
   32.0637  -13.5743    0.0000 C   0  0  0  0  0  0  0  0  0  0  0  0
   14.0961  -18.1029    0.0000 C   0  0  0  0  0  0  0  0  0  0  0  0
   41.2281  -11.4474    0.0000 C   0  0  0  0  0  0  0  0  0  0  0  0
   13.7953   -3.3971    0.0000 C   0  0  0  0  0  0  0  0  0  0  0  0
   13.7953   -4.3971    0.0000 C   0  0  0  0  0  0  0  0  0  0  0  0
   36.5908  -17.8824    0.0000 C   0  0  0  0  0  0  0  0  0  0  0  0
   12.0632   -0.3971    0.0000 C   0  0  0  0  0  0  0  0  0  0  0  0
   34.7812   -0.3971    0.0000 C   0  0  0  0  0  0  0  0  0  0  0  0
   40.3128  -12.9179    0.0000 C   0  0  0  0  0  0  0  0  0  0  0  0
   41.1949  -12.4469    0.0000 C   0  0  0  0  0  0  0  0  0  0  0  0
   11.1972   -1.8971    0.0000 C   0  0  0  0  0  0  0  0  0  0  0  0
    9.4651   -1.8971    0.0000 C   0  0  0  0  0  0  0  0  0  0  0  0
   10.6320  -21.1029    0.0000 C   0  0  0  0  0  0  0  0  0  0  0  0
    9.7660  -19.6029    0.0000 C   0  0  0  0  0  0  0  0  0  0  0  0
   23.8530   -0.3971    0.0000 C   0  0  0  0  0  0  0  0  0  0  0  0
   10.1080   -2.6631    0.0000 C   0  0  0  0  0  0  0  0  0  0  0  0
   14.9621   -6.6029    0.0000 C   0  0  0  0  0  0  0  0  0  0  0  0
   14.9621  -18.6029    0.0000 C   0  0  0  0  0  0  0  0  0  0  0  0
   12.9292   -4.8971    0.0000 C   0  0  0  0  0  0  0  0  0  0  0  0
   14.0961  -17.1029    0.0000 C   0  0  0  0  0  0  0  0  0  0  0  0
   15.9469   -6.4292    0.0000 C   0  0  0  0  0  0  0  0  0  0  0  0
   34.4953  -18.1839    0.0000 C   0  0  0  0  0  0  0  0  0  0  0  0
   14.0960   -6.1029    0.0000 C   0  0  0  0  0  0  0  0  0  0  0  0
   11.5632    0.4689    0.0000 C   0  0  0  0  0  0  0  0  0  0  0  0
   16.6941  -13.6029    0.0000 C   0  0  0  0  0  0  0  0  0  0  0  0
   14.9621  -15.6029    0.0000 C   0  0  0  0  0  0  0  0  0  0  0  0
   30.9196    9.1029    0.0000 C   0  0  0  0  0  0  0  0  0  0  0  0
    9.7660  -21.6029    0.0000 C   0  0  0  0  0  0  0  0  0  0  0  0
    8.8999  -20.1029    0.0000 C   0  0  0  0  0  0  0  0  0  0  0  0
   17.5601  -14.1029    0.0000 C   0  0  0  0  0  0  0  0  0  0  0  0
   33.5105  -18.3576    0.0000 C   0  0  0  0  0  0  0  0  0  0  0  0
   16.5897   -7.1953    0.0000 C   0  0  0  0  0  0  0  0  0  0  0  0
    6.8671   -9.3971    0.0000 C   0  0  0  0  0  0  0  0  0  0  0  0
   18.4262  -13.6029    0.0000 C   0  0  0  0  0  0  0  0  0  0  0  0
    8.5991   -1.3971    0.0000 C   0  0  0  0  0  0  0  0  0  0  0  0
    8.8999  -21.1029    0.0000 C   0  0  0  0  0  0  0  0  0  0  0  0
    6.0010  -11.8971    0.0000 C   0  0  0  0  0  0  0  0  0  0  0  0
    6.0010   -8.8971    0.0000 C   0  0  0  0  0  0  0  0  0  0  0  0
    9.7662   -3.6028    0.0000 C   0  0  0  0  0  0  0  0  0  0  0  0
   11.0478   -3.0050    0.0000 C   0  0  0  0  0  0  0  0  0  0  0  0
   31.9196   22.6029    0.0000 C   0  0  0  0  0  0  0  0  0  0  0  0
   32.7856   23.1029    0.0000 C   0  0  0  0  0  0  0  0  0  0  0  0
   15.8281  -15.1029    0.0000 C   0  0  0  0  0  0  0  0  0  0  0  0
   32.7856   24.1029    0.0000 C   0  0  0  0  0  0  0  0  0  0  0  0
    6.8671  -12.3971    0.0000 C   0  0  0  0  0  0  0  0  0  0  0  0
   16.5898   -8.1953    0.0000 C   0  0  0  0  0  0  0  0  0  0  0  0
    5.1350   -9.3971    0.0000 C   0  0  0  0  0  0  0  0  0  0  0  0
   14.0961   -9.1029    0.0000 C   0  0  0  0  0  0  0  0  0  0  0  0
    8.5991   -7.3971    0.0000 C   0  0  0  0  0  0  0  0  0  0  0  0
    6.8671  -10.3971    0.0000 C   0  0  0  0  0  0  0  0  0  0  0  0
   16.6941  -12.6029    0.0000 C   0  0  0  0  0  0  0  0  0  0  0  0
   33.1684  -19.2973    0.0000 C   0  0  0  0  0  0  0  0  0  0  0  0
   14.0961   -8.1029    0.0000 C   0  0  0  0  0  0  0  0  0  0  0  0
   30.0536    9.6029    0.0000 C   0  0  0  0  0  0  0  0  0  0  0  0
   10.5687    0.5734    0.0000 C   0  0  0  0  0  0  0  0  0  0  0  0
   14.0961  -15.1029    0.0000 C   0  0  0  0  0  0  0  0  0  0  0  0
    4.2690  -13.8971    0.0000 C   0  0  0  0  0  0  0  0  0  0  0  0
    9.4651   -4.8971    0.0000 C   0  0  0  0  0  0  0  0  0  0  0  0
   33.6517   12.6029    0.0000 C   0  0  0  0  0  0  0  0  0  0  0  0
    6.8671  -13.3971    0.0000 C   0  0  0  0  0  0  0  0  0  0  0  0
    5.1350  -12.3971    0.0000 C   0  0  0  0  0  0  0  0  0  0  0  0
   15.8281  -11.1029    0.0000 C   0  0  0  0  0  0  0  0  0  0  0  0
   19.2922  -14.1029    0.0000 C   0  0  0  0  0  0  0  0  0  0  0  0
   18.4262  -12.6029    0.0000 C   0  0  0  0  0  0  0  0  0  0  0  0
    7.7331   -7.8971    0.0000 C   0  0  0  0  0  0  0  0  0  0  0  0
    4.2690   -8.8971    0.0000 C   0  0  0  0  0  0  0  0  0  0  0  0
   33.6517   13.6029    0.0000 C   0  0  0  0  0  0  0  0  0  0  0  0
    9.4651   -7.8971    0.0000 C   0  0  0  0  0  0  0  0  0  0  0  0
   31.9196   21.6029    0.0000 C   0  0  0  0  0  0  0  0  0  0  0  0
   28.1876    9.6029    0.0000 C   0  0  0  0  0  0  0  0  0  0  0  0
   10.3312   -4.3971    0.0000 C   0  0  0  0  0  0  0  0  0  0  0  0
    4.2690  -14.8971    0.0000 C   0  0  0  0  0  0  0  0  0  0  0  0
    7.7331   -2.8971    0.0000 C   0  0  0  0  0  0  0  0  0  0  0  0
   17.4557   -8.6953    0.0000 C   0  0  0  0  0  0  0  0  0  0  0  0
   34.5177   18.1029    0.0000 C   0  0  0  0  0  0  0  0  0  0  0  0
   13.2301   -9.6029    0.0000 C   0  0  0  0  0  0  0  0  0  0  0  0
   33.6517   24.6029    0.0000 C   0  0  0  0  0  0  0  0  0  0  0  0
   31.9196   24.6029    0.0000 C   0  0  0  0  0  0  0  0  0  0  0  0
    9.4651   -5.8971    0.0000 C   0  0  0  0  0  0  0  0  0  0  0  0
   14.9621  -10.6029    0.0000 C   0  0  0  0  0  0  0  0  0  0  0  0
   32.7856   20.1029    0.0000 C   0  0  0  0  0  0  0  0  0  0  0  0
   11.2268    2.0516    0.0000 C   0  0  0  0  0  0  0  0  0  0  0  0
   35.3837   15.6029    0.0000 C   0  0  0  0  0  0  0  0  0  0  0  0
    7.7331  -13.8971    0.0000 C   0  0  0  0  0  0  0  0  0  0  0  0
   35.3837   18.6029    0.0000 C   0  0  0  0  0  0  0  0  0  0  0  0
   28.1876   10.6029    0.0000 C   0  0  0  0  0  0  0  0  0  0  0  0
    3.4030  -13.3971    0.0000 C   0  0  0  0  0  0  0  0  0  0  0  0
    8.5991   -3.3971    0.0000 C   0  0  0  0  0  0  0  0  0  0  0  0
    3.4030   -9.3971    0.0000 C   0  0  0  0  0  0  0  0  0  0  0  0
   16.6941  -10.6029    0.0000 C   0  0  0  0  0  0  0  0  0  0  0  0
   34.5177   17.1029    0.0000 C   0  0  0  0  0  0  0  0  0  0  0  0
   34.5177   15.1029    0.0000 C   0  0  0  0  0  0  0  0  0  0  0  0
   33.6517   19.6029    0.0000 C   0  0  0  0  0  0  0  0  0  0  0  0
   36.2497   15.1029    0.0000 C   0  0  0  0  0  0  0  0  0  0  0  0
   32.1836  -19.4709    0.0000 C   0  0  0  0  0  0  0  0  0  0  0  0
   35.3837   19.6029    0.0000 C   0  0  0  0  0  0  0  0  0  0  0  0
   10.3312   -7.3971    0.0000 C   0  0  0  0  0  0  0  0  0  0  0  0
   27.3215    9.1029    0.0000 C   0  0  0  0  0  0  0  0  0  0  0  0
   31.9196   19.6029    0.0000 C   0  0  0  0  0  0  0  0  0  0  0  0
   32.7856   14.1029    0.0000 C   0  0  0  0  0  0  0  0  0  0  0  0
   27.3215   11.1029    0.0000 C   0  0  0  0  0  0  0  0  0  0  0  0
   12.3640   -9.1029    0.0000 C   0  0  0  0  0  0  0  0  0  0  0  0
   36.2497   20.1029    0.0000 C   0  0  0  0  0  0  0  0  0  0  0  0
   25.4555    9.1029    0.0000 C   0  0  0  0  0  0  0  0  0  0  0  0
   37.1158   15.6029    0.0000 C   0  0  0  0  0  0  0  0  0  0  0  0
   24.5895    9.6029    0.0000 C   0  0  0  0  0  0  0  0  0  0  0  0
   25.4555    8.1029    0.0000 C   0  0  0  0  0  0  0  0  0  0  0  0
   22.7235    9.6029    0.0000 C   0  0  0  0  0  0  0  0  0  0  0  0
   37.9818   15.1029    0.0000 C   0  0  0  0  0  0  0  0  0  0  0  0
   37.1158   16.6029    0.0000 C   0  0  0  0  0  0  0  0  0  0  0  0
    8.5991  -15.3971    0.0000 C   0  0  0  0  0  0  0  0  0  0  0  0
   22.7235   10.6029    0.0000 C   0  0  0  0  0  0  0  0  0  0  0  0
   21.8574    9.1029    0.0000 C   0  0  0  0  0  0  0  0  0  0  0  0
   38.8478   15.6029    0.0000 C   0  0  0  0  0  0  0  0  0  0  0  0
   37.9818   17.1029    0.0000 C   0  0  0  0  0  0  0  0  0  0  0  0
   19.9914    9.1029    0.0000 C   0  0  0  0  0  0  0  0  0  0  0  0
   26.4555   12.6029    0.0000 C   0  0  0  0  0  0  0  0  0  0  0  0
   19.9914    8.1029    0.0000 C   0  0  0  0  0  0  0  0  0  0  0  0
   38.8478   16.6029    0.0000 C   0  0  0  0  0  0  0  0  0  0  0  0
   37.1158   21.6029    0.0000 C   0  0  0  0  0  0  0  0  0  0  0  0
   23.5895   11.1029    0.0000 C   0  0  0  0  0  0  0  0  0  0  0  0
   19.1254    7.6029    0.0000 C   0  0  0  0  0  0  0  0  0  0  0  0
   19.1254    9.6029    0.0000 C   0  0  0  0  0  0  0  0  0  0  0  0
   19.0223    6.6142    0.0000 C   0  0  0  0  0  0  0  0  0  0  0  0
   18.2176    8.0080    0.0000 C   0  0  0  0  0  0  0  0  0  0  0  0
   18.0438    6.4079    0.0000 C   0  0  0  0  0  0  0  0  0  0  0  0
   17.2594    9.6029    0.0000 C   0  0  0  0  0  0  0  0  0  0  0  0
   19.6902    5.8698    0.0000 C   0  0  0  0  0  0  0  0  0  0  0  0
   17.7332    5.4574    0.0000 C   0  0  0  0  0  0  0  0  0  0  0  0
   19.3795    4.9193    0.0000 C   0  0  0  0  0  0  0  0  0  0  0  0
   18.4010    4.7131    0.0000 C   0  0  0  0  0  0  0  0  0  0  0  0
   17.2594   10.6029    0.0000 C   0  0  0  0  0  0  0  0  0  0  0  0
   16.3933    9.1029    0.0000 C   0  0  0  0  0  0  0  0  0  0  0  0
   33.3782   -0.5871    0.0000 H   0  0  0  0  0  0  0  0  0  0  0  0
   23.3160    0.9129    0.0000 H   0  0  0  0  0  0  0  0  0  0  0  0
   10.0021  -15.2071    0.0000 H   0  0  0  0  0  0  0  0  0  0  0  0
   38.5187   21.4129    0.0000 H   0  0  0  0  0  0  0  0  0  0  0  0
  1  2  1  0
  1188  1  0
  2259  1  0
  3237  1  0
  3280  1  0
  4  5  1  0
  4275  1  0
  5338  1  0
  6  7  1  0
  6298  1  0
  7350  1  0
  8380  1  0
  8396  1  0
  9162  2  0
 10166  2  0
 11169  2  0
 12177  2  0
 13178  2  0
 14186  2  0
 15193  1  0
 16189  2  0
 17193  2  0
 18200  2  0
 19201  2  0
 20204  2  0
 21207  2  0
 22228  1  0
 23220  2  0
 24229  2  0
 25228  2  0
 26231  2  0
 27233  2  0
 28236  2  0
 29238  2  0
 30240  2  0
 31245  2  0
 32248  2  0
 33249  2  0
 34250  2  0
 35251  2  0
 36270  1  0
 37268  2  0
 38270  2  0
 39271  2  0
 40273  2  0
 41274  2  0
 42279  2  0
 43285  1  0
 44283  2  0
 45290  2  0
 46297  1  0
 47299  2  0
 48301  2  0
 49302  2  0
 50315  1  0
 51314  2  0
 52322  2  0
 53329  2  0
 54330  2  0
 55332  2  0
 56333  2  0
347 57  1  0
 58340  2  0
 59344  2  0
 60348  2  0
 61351  2  0
 62358  2  0
 63366  1  0
 64359  2  0
 65374  1  0
 66367  2  0
 67370  2  0
 68371  2  0
 69372  2  0
 70374  2  0
 71379  1  0
 72377  2  0
 73379  2  0
 74381  2  0
 75386  1  0
 76385  2  0
391 77  1  0
 78392  2  0
 79402  2  0
 80411  1  0
 81412  1  0
 82412  2  0
157 83  1  1
 83166  1  0
160 84  1  0
 84162  1  0
161 85  1  6
 85177  1  0
168 86  1  0
 86169  1  0
176 87  1  0
 87186  1  0
 88178  1  0
183 88  1  6
 89180  1  0
185 90  1  0
 90200  1  0
191 91  1  0
 91201  1  0
190 92  1  0
 92207  1  0
 93189  1  0
 93216  1  0
203 94  1  0
 94204  1  0
199 95  1  1
 95229  1  0
197 96  1  0
 96236  1  0
202 97  1  0
 97231  1  0
208 98  1  0
 98240  1  0
 99220  1  0
230 99  1  0
215100  1  0
100238  1  0
212101  1  1
101245  1  0
102211  1  0
102248  1  0
219103  1  0
103251  1  0
104233  1  0
241104  1  0
227105  1  0
105268  1  0
106249  1  0
258106  1  0
107250  1  0
265107  1  0
108252  1  0
108287  1  0
109267  1  0
109269  1  0
110262  1  0
110283  1  0
111260  1  0
111294  1  0
112273  1  0
112278  1  0
113271  1  0
281113  1  0
272114  1  0
114301  1  0
115279  1  0
115306  1  0
116274  1  0
284117  1  1
117302  1  0
118290  1  0
118291  1  0
119299  1  0
305119  1  0
120287  1  0
296121  1  0
121332  1  0
304122  1  0
122322  1  0
123287  2  0
123413  1  0
124294  1  0
125303  1  0
125361  1  0
316126  1  0
126329  1  0
312127  1  0
127344  1  0
128294  2  0
128414  1  0
129314  1  0
129352  1  0
320130  1  0
130351  1  0
131330  1  0
341131  1  0
336132  1  0
132340  1  0
133333  1  0
349133  1  0
328134  1  1
134358  1  0
327135  1  0
135359  1  0
310136  1  6
337137  1  1
137367  1  0
138348  1  0
360138  1  0
139334  1  0
139361  2  0
346140  1  0
140371  1  0
354141  1  0
141372  1  0
362142  1  0
142370  1  0
143353  1  0
144363  1  0
144390  1  0
145377  1  0
383145  1  0
146368  1  0
147382  1  0
147399  1  0
148381  1  0
149385  1  0
387149  1  6
150392  1  0
395150  1  0
151390  1  0
152390  2  0
152415  1  0
153399  1  0
154402  1  0
406154  1  0
155404  1  0
155405  1  0
156399  2  0
156416  1  0
157158  1  0
157162  1  0
158159  1  0
158165  1  1
159171  1  0
160164  1  6
160169  1  0
161163  1  0
161166  1  0
163173  1  0
163174  1  0
164167  1  0
167175  1  0
168170  1  1
168178  1  0
170172  1  0
172181  1  0
172182  1  0
175180  1  0
176177  1  0
176179  1  1
179184  1  0
183188  1  0
183189  1  0
184193  1  0
185186  1  0
185187  1  6
187195  1  0
190192  1  6
190201  1  0
191194  1  1
191204  1  0
192196  1  0
194213  1  0
194214  1  0
195228  1  0
196217  1  0
196218  1  0
197200  1  0
197205  1  1
198199  1  0
198206  1  0
198223  1  1
199220  1  0
202207  1  0
202221  1  1
203210  1  6
203233  1  0
205237  1  0
206242  1  0
208225  1  6
208231  1  0
209212  1  0
209235  1  0
209247  1  1
210232  1  0
211224  1  0
211238  1  1
212250  1  0
215222  1  1
215249  1  0
216240  1  0
219229  1  0
219239  1  6
221246  1  0
222226  1  0
224234  1  0
225244  1  0
226253  1  0
226254  1  0
227236  1  0
227243  1  6
230245  1  0
230257  1  6
232252  1  0
234248  1  0
235261  1  0
239256  1  0
241251  1  0
241263  1  1
243255  1  0
244260  1  0
246270  1  0
255264  1  0
255267  2  0
256274  1  0
258266  1  1
258271  1  0
262259  1  6
262273  1  0
264269  2  0
264277  1  0
265275  1  0
265279  1  6
266276  1  0
268272  1  0
269282  1  0
272285  1  1
276292  2  0
276293  1  0
277288  2  0
278286  1  6
278290  1  0
281297  1  6
281299  1  0
282289  2  0
283284  1  0
284298  1  0
286303  1  0
288289  1  0
291295  1  1
291314  1  0
292307  1  0
293308  2  0
295318  1  0
295319  1  0
296300  1  6
296302  1  0
300311  1  0
301310  1  0
303334  2  0
304309  1  6
304330  1  0
305322  1  0
305335  1  1
306333  1  0
307315  2  0
308315  1  0
309313  1  0
310331  1  0
311325  1  0
312317  1  6
312329  1  0
313342  1  0
313343  1  0
316324  1  1
316340  1  0
317326  1  0
320321  1  1
320348  1  0
321323  1  0
323356  1  0
323357  1  0
324339  1  0
325353  1  0
326345  1  0
327332  1  0
327355  1  1
328344  1  0
328347  1  0
331374  1  0
336351  1  0
336366  1  6
337350  1  0
337358  1  0
338346  1  0
339363  1  0
341359  1  0
341369  1  6
345368  1  0
346379  1  1
347376  1  1
349365  1  6
349377  1  0
352367  1  0
354364  1  1
354370  1  0
355381  1  0
360372  1  0
360378  1  6
362371  1  0
362373  1  1
364375  1  0
365380  1  0
373384  1  0
375382  1  0
383385  1  0
383386  1  1
384388  2  0
384389  1  0
387391  1  0
387392  1  0
388393  1  0
389394  2  0
391400  1  6
393398  2  0
394398  1  0
395397  1  1
395402  1  0
397401  1  0
401403  1  0
401404  2  0
403405  2  0
403407  1  0
405408  1  0
406411  1  6
406412  1  0
407409  2  0
408410  2  0
409410  1  0
M  END
