 
     RDKit          2D

 52 57  0  0  0  0  0  0  0  0999 V2000
    5.1800  -12.9500    0.0000 C   0  0  0  0  0  0  0  0  0  0  0  0
    5.1800  -14.3500    0.0000 C   0  0  0  0  0  0  0  0  0  0  0  0
    6.3924  -15.0500    0.0000 C   0  0  0  0  0  0  0  0  0  0  0  0
    7.6049  -14.3500    0.0000 C   0  0  0  0  0  0  0  0  0  0  0  0
    7.6049  -12.9500    0.0000 C   0  0  0  0  0  0  0  0  0  0  0  0
    6.3924  -12.2500    0.0000 C   0  0  0  0  0  0  0  0  0  0  0  0
    8.8360  -12.2390    0.0000 C   0  0  0  0  0  0  0  0  0  0  0  0
   10.0412  -12.9347    0.0000 C   0  0  0  0  0  0  0  0  0  0  0  0
   11.2535  -12.2346    0.0000 C   0  0  0  0  0  0  0  0  0  0  0  0
   11.2535  -10.8346    0.0000 C   0  0  0  0  0  0  0  0  0  0  0  0
   10.0483  -10.1389    0.0000 C   0  0  0  0  0  0  0  0  0  0  0  0
    8.8359  -10.8390    0.0000 C   0  0  0  0  0  0  0  0  0  0  0  0
    6.3924  -10.8502    0.0000 C   0  0  0  0  0  0  0  0  0  0  0  0
    7.5103  -10.0378    0.0000 N   0  0  0  0  0  0  0  0  0  0  0  0
    7.0831   -8.7236    0.0000 N   0  0  0  0  0  0  0  0  0  0  0  0
    5.7012   -8.7237    0.0000 N   0  0  0  0  0  0  0  0  0  0  0  0
    5.2743  -10.0381    0.0000 N   0  0  0  0  0  0  0  0  0  0  0  0
   12.4714  -10.1312    0.0000 C   0  0  0  0  0  0  0  0  0  0  0  0
   13.6834  -10.8307    0.0000 N   0  0  0  0  0  0  0  0  0  0  0  0
   13.6834  -12.2307    0.0000 C   0  0  0  0  0  0  0  0  0  0  0  0
   15.0148  -12.6634    0.0000 C   0  0  0  0  0  0  0  0  0  0  0  0
   15.8378  -11.5307    0.0000 N   0  0  0  0  0  0  0  0  0  0  0  0
   15.0148  -10.3981    0.0000 C   0  0  0  0  0  0  0  0  0  0  0  0
   12.5198  -13.0762    0.0000 O   0  0  0  0  0  0  0  0  0  0  0  0
   15.0148   -8.9981    0.0000 C   0  0  0  0  0  0  0  0  0  0  0  0
   16.1875   -8.3215    0.0000 C   0  0  0  0  0  0  0  0  0  0  0  0
   17.3902   -9.0164    0.0000 C   0  0  0  0  0  0  0  0  0  0  0  0
   14.1834  -13.7856    0.0000 C   0  0  0  0  0  0  0  0  0  0  0  0
   14.9992  -14.9234    0.0000 C   0  0  0  0  0  0  0  0  0  0  0  0
   16.3334  -14.4992    0.0000 C   0  0  0  0  0  0  0  0  0  0  0  0
   16.3422  -13.0992    0.0000 C   0  0  0  0  0  0  0  0  0  0  0  0
   18.5743   -8.3332    0.0000 C   0  0  0  0  0  0  0  0  0  0  0  0
   24.9600  -17.0201    0.0000 C   0  0  0  0  0  0  0  0  0  0  0  0
   25.0243  -18.4245    0.0000 C   0  0  0  0  0  0  0  0  0  0  0  0
   26.1773  -16.3296    0.0000 C   0  0  0  0  0  0  0  0  0  0  0  0
   23.7547  -16.3238    0.0000 S   0  0  0  0  0  0  0  0  0  0  0  0
   23.7547  -19.1210    0.0000 N   0  0  0  0  0  0  0  0  0  0  0  0
   26.1656  -19.1267    0.0000 C   0  0  0  0  0  0  0  0  0  0  0  0
   27.3827  -17.0318    0.0000 C   0  0  0  0  0  0  0  0  0  0  0  0
   22.5374  -17.0201    0.0000 N   0  0  0  0  0  0  0  0  0  0  0  0
   22.5316  -15.6216    0.0000 O   0  0  0  0  0  0  0  0  0  0  0  0
   24.9543  -15.6158    0.0000 O   0  0  0  0  0  0  0  0  0  0  0  0
   22.5374  -18.4245    0.0000 C   0  0  0  0  0  0  0  0  0  0  0  0
   27.3769  -18.4305    0.0000 C   0  0  0  0  0  0  0  0  0  0  0  0
   28.5823  -16.3296    0.0000 S   0  0  0  0  0  0  0  0  0  0  0  0
   21.3203  -19.1210    0.0000 C   0  0  0  0  0  0  0  0  0  0  0  0
   28.5765  -19.1267    0.0000 Cl  0  0  0  0  0  0  0  0  0  0  0  0
   29.7936  -15.4811    0.0000 N   0  0  0  0  0  0  0  0  0  0  0  0
   27.5933  -15.3290    0.0000 O   0  0  0  0  0  0  0  0  0  0  0  0
   29.6356  -17.1781    0.0000 O   0  0  0  0  0  0  0  0  0  0  0  0
   20.1090  -18.4245    0.0000 Cl  0  0  0  0  0  0  0  0  0  0  0  0
   21.3844  -20.5195    0.0000 Cl  0  0  0  0  0  0  0  0  0  0  0  0
  1  2  2  0
  2  3  1  0
  3  4  2  0
  4  5  1  0
  5  6  2  0
  1  6  1  0
  5  7  1  0
  7  8  2  0
  8  9  1  0
  9 10  2  0
 10 11  1  0
 11 12  2  0
  7 12  1  0
  6 13  1  0
 13 14  2  0
 14 15  1  0
 15 16  2  0
 16 17  1  0
 13 17  1  0
 10 18  1  0
 18 19  1  0
 19 20  1  0
 20 21  1  0
 21 22  1  0
 22 23  2  0
 19 23  1  0
 20 24  2  0
 23 25  1  0
 25 26  1  0
 26 27  1  0
 21 28  1  0
 28 29  1  0
 29 30  1  0
 30 31  1  0
 21 31  1  0
 27 32  1  0
 33 34  1  0
 33 35  2  0
 33 36  1  0
 34 37  1  0
 34 38  2  0
 35 39  1  0
 36 40  1  0
 36 41  2  0
 36 42  2  0
 37 43  1  0
 38 44  1  0
 39 45  1  0
 43 46  1  0
 44 47  1  0
 45 48  1  0
 45 49  2  0
 45 50  2  0
 46 51  1  0
 46 52  1  0
 39 44  2  0
 40 43  1  0
M  END
