 
     RDKit          2D

 42 44  0  0  0  0  0  0  0  0999 V2000
   26.6164  -16.3136    0.0000 O   0  0  0  0  0  0  0  0  0  0  0  0
   25.4050  -17.0138    0.0000 C   0  0  0  0  0  0  0  0  0  0  0  0
   24.1928  -16.3148    0.0000 C   0  0  0  0  0  0  0  0  0  0  0  0
   25.4056  -18.4130    0.0000 O   0  0  0  0  0  0  0  0  0  0  0  0
   22.9815  -17.0150    0.0000 C   0  0  0  0  0  0  0  0  0  0  0  0
   21.7750  -16.3132    0.0000 C   0  0  0  0  0  0  0  0  0  0  0  0
   20.5638  -17.0135    0.0000 C   0  0  0  0  0  0  0  0  0  0  0  0
   20.5644  -18.4127    0.0000 C   0  0  0  0  0  0  0  0  0  0  0  0
   21.7765  -19.1116    0.0000 C   0  0  0  0  0  0  0  0  0  0  0  0
   22.9878  -18.4113    0.0000 C   0  0  0  0  0  0  0  0  0  0  0  0
   19.3530  -19.1128    0.0000 C   0  0  0  0  0  0  0  0  0  0  0  0
   18.1408  -18.4139    0.0000 C   0  0  0  0  0  0  0  0  0  0  0  0
   16.9295  -19.1141    0.0000 C   0  0  0  0  0  0  0  0  0  0  0  0
   18.1401  -17.0147    0.0000 C   0  0  0  0  0  0  0  0  0  0  0  0
   24.1920  -14.9103    0.0000 C   0  0  0  0  0  0  0  0  0  0  0  0
   18.3400   -7.5600    0.0000 C   0  0  0  0  0  0  0  0  0  0  0  0
   18.6200   -6.3700    0.0000 C   0  0  0  0  0  0  0  0  0  0  0  0
   19.4600   -7.2800    0.0000 C   0  0  0  0  0  0  0  0  0  0  0  0
   17.2900   -6.1600    0.0000 O   0  0  0  0  0  0  0  0  0  0  0  0
   19.8100   -6.0900    0.0000 C   0  0  0  0  0  0  0  0  0  0  0  0
   18.5500   -4.7600    0.0000 N   0  0  0  0  0  0  0  0  0  0  0  0
   21.3500   -7.2800    0.0000 C   0  0  0  0  0  0  0  0  0  0  0  0
   21.0700   -6.0900    0.0000 C   0  0  0  0  0  0  0  0  0  0  0  0
   22.3300   -7.7700    0.0000 C   0  0  0  0  0  0  0  0  0  0  0  0
   23.3800   -8.6800    0.0000 O   0  0  0  0  0  0  0  0  0  0  0  0
   24.7800   -8.6800    0.0000 C   0  0  0  0  0  0  0  0  0  0  0  0
   25.4800   -9.8700    0.0000 O   0  0  0  0  0  0  0  0  0  0  0  0
   25.4800   -7.4900    0.0000 C   0  0  0  0  0  0  0  0  0  0  0  0
   26.8800   -7.4900    0.0000 C   0  0  0  0  0  0  0  0  0  0  0  0
   27.5800   -8.6800    0.0000 C   0  0  0  0  0  0  0  0  0  0  0  0
   28.9800   -8.6800    0.0000 C   0  0  0  0  0  0  0  0  0  0  0  0
   29.6800   -7.4900    0.0000 C   0  0  0  0  0  0  0  0  0  0  0  0
   28.9800   -6.3000    0.0000 C   0  0  0  0  0  0  0  0  0  0  0  0
   27.5800   -6.3000    0.0000 C   0  0  0  0  0  0  0  0  0  0  0  0
   24.7800   -6.2300    0.0000 C   0  0  0  0  0  0  0  0  0  0  0  0
   25.4800   -5.0400    0.0000 O   0  0  0  0  0  0  0  0  0  0  0  0
   17.2891   -5.3683    0.0000 C   0  0  0  0  0  0  0  0  0  0  0  0
   16.1425   -4.5880    0.0000 C   0  0  0  0  0  0  0  0  0  0  0  0
   18.5500   -3.3600    0.0000 C   0  0  0  0  0  0  0  0  0  0  0  0
   14.8921   -5.1918    0.0000 C   0  0  0  0  0  0  0  0  0  0  0  0
   13.7415   -4.4089    0.0000 C   0  0  0  0  0  0  0  0  0  0  0  0
   16.4500   -3.0800    0.0000 Br  0  0  0  0  0  0  0  0  0  0  0  0
  2  4  2  0
  3  5  1  0
  5  6  2  0
  6  7  1  0
  7  8  2  0
  8  9  1  0
  9 10  2  0
 10  5  1  0
  8 11  1  0
  1  2  1  0
 11 12  1  0
 12 13  1  0
  2  3  1  0
 12 14  1  0
  3 15  1  0
 16 17  1  0
 16 18  1  0
 16 19  1  0
 17 20  1  0
 18 21  1  0
 18 22  1  6
 20 23  1  1
 22 24  1  0
 24 25  1  6
 17 19  1  0
 20 21  1  0
 23 24  1  0
 25 26  1  0
 26 27  2  0
 26 28  1  0
 28 29  1  0
 29 30  2  0
 30 31  1  0
 31 32  2  0
 32 33  1  0
 33 34  2  0
 29 34  1  0
 28 35  1  6
 35 36  1  0
 21 37  1  0
 37 38  1  0
 21 39  1  0
 38 40  1  0
 40 41  1  0
M  CHG  2  21   1  42  -1
M  END
