 
 
 
 34 36  0  0  0  0  0  0  0  0999 V2000
   16.1544  -13.1441    0.0000 C   0  0  0  0  0  0  0  0  0  0  0  0
   16.1544  -14.5430    0.0000 C   0  0  0  0  0  0  0  0  0  0  0  0
   14.9654  -15.2424    0.0000 C   0  0  0  0  0  0  0  0  0  0  0  0
   13.7763  -14.5430    0.0000 C   0  0  0  0  0  0  0  0  0  0  0  0
   13.7763  -13.1441    0.0000 C   0  0  0  0  0  0  0  0  0  0  0  0
   14.9654  -12.4447    0.0000 C   0  0  0  0  0  0  0  0  0  0  0  0
   12.5174  -15.2424    0.0000 C   0  0  0  0  0  0  0  0  0  0  0  0
   11.3283  -14.5430    0.0000 N   0  0  0  0  0  0  0  0  0  0  0  0
   11.3283  -13.1441    0.0000 C   0  0  0  0  0  0  0  0  0  0  0  0
   12.5174  -12.4447    0.0000 N   0  0  0  0  0  0  0  0  0  0  0  0
   17.4134  -15.2424    0.0000 N   0  0  0  0  0  0  0  0  0  0  0  0
   17.4134  -12.4447    0.0000 O   0  0  0  0  0  0  0  0  0  0  0  0
   12.5174  -16.6413    0.0000 N   0  0  0  0  0  0  0  0  0  0  0  0
   17.4134  -11.0458    0.0000 C   0  0  0  0  0  0  0  0  0  0  0  0
   18.6024  -14.5430    0.0000 C   0  0  0  0  0  0  0  0  0  0  0  0
   19.8614  -15.2424    0.0000 C   0  0  0  0  0  0  0  0  0  0  0  0
   18.6024  -13.1441    0.0000 O   0  0  0  0  0  0  0  0  0  0  0  0
   20.9805  -14.5430    0.0000 C   0  0  0  0  0  0  0  0  0  0  0  0
   22.2395  -15.2424    0.0000 C   0  0  0  0  0  0  0  0  0  0  0  0
   23.4285  -14.4730    0.0000 N   0  0  0  0  0  0  0  0  0  0  0  0
   24.6175  -15.1725    0.0000 C   0  0  0  0  0  0  0  0  0  0  0  0
   25.8065  -14.4730    0.0000 C   0  0  0  0  0  0  0  0  0  0  0  0
   25.8066  -13.0742    0.0000 C   0  0  0  0  0  0  0  0  0  0  0  0
   24.6175  -12.3747    0.0000 C   0  0  0  0  0  0  0  0  0  0  0  0
   23.4285  -13.0742    0.0000 C   0  0  0  0  0  0  0  0  0  0  0  0
   13.7064  -17.3407    0.0000 C   0  0  0  0  0  0  0  0  0  0  0  0
   13.7064  -18.7396    0.0000 C   0  0  0  0  0  0  0  0  0  0  0  0
   14.9654  -19.4390    0.0000 C   0  0  0  0  0  0  0  0  0  0  0  0
   16.1544  -18.7396    0.0000 C   0  0  0  0  0  0  0  0  0  0  0  0
   16.1544  -17.3407    0.0000 C   0  0  0  0  0  0  0  0  0  0  0  0
   14.9654  -16.6413    0.0000 C   0  0  0  0  0  0  0  0  0  0  0  0
   14.9654  -20.8379    0.0000 Cl  0  0  0  0  0  0  0  0  0  0  0  0
   17.3434  -19.4390    0.0000 F   0  0  0  0  0  0  0  0  0  0  0  0
   23.9400  -19.2500    0.0000 O   0  0  0  0  0  0  0  0  0  0  0  0
  1  2  1  0     0  0
  2  3  2  0     0  0
  3  4  1  0     0  0
  4  5  2  0     0  0
  5  6  1  0     0  0
  1  6  2  0     0  0
  4  7  1  0     0  0
  7  8  2  0     0  0
  8  9  1  0     0  0
  9 10  2  0     0  0
  5 10  1  0     0  0
  2 11  1  0     0  0
  1 12  1  0     0  0
  7 13  1  0     0  0
 12 14  1  0     0  0
 11 15  1  0     0  0
 15 16  1  0     0  0
 15 17  2  0     0  0
 16 18  2  0     0  0
 18 19  1  0     0  0
 19 20  1  0     0  0
 20 21  1  0     0  0
 21 22  1  0     0  0
 22 23  1  0     0  0
 23 24  1  0     0  0
 24 25  1  0     0  0
 20 25  1  0     0  0
 13 26  1  0     0  0
 26 27  2  0     0  0
 27 28  1  0     0  0
 28 29  2  0     0  0
 29 30  1  0     0  0
 30 31  2  0     0  0
 26 31  1  0     0  0
 28 32  1  0     0  0
 29 33  1  0     0  0
M  END
