 
     RDKit          2D

 88 90  0  0  0  0  0  0  0  0999 V2000
   25.2700  -26.3900    0.0000 C   0  0  0  0  0  0  0  0  0  0  0  0
   25.2700  -27.7900    0.0000 C   0  0  0  0  0  0  0  0  0  0  0  0
   26.4600  -28.4900    0.0000 C   0  0  0  0  0  0  0  0  0  0  0  0
   27.7200  -27.7900    0.0000 C   0  0  0  0  0  0  0  0  0  0  0  0
   27.7200  -26.3900    0.0000 C   0  0  0  0  0  0  0  0  0  0  0  0
   26.4600  -25.6900    0.0000 C   0  0  0  0  0  0  0  0  0  0  0  0
   28.9100  -28.4900    0.0000 N   0  0  0  0  0  0  0  0  0  0  0  0
   30.1700  -27.7900    0.0000 C   0  0  0  0  0  0  0  0  0  0  0  0
   31.2900  -28.4900    0.0000 N   0  0  0  0  0  0  0  0  0  0  0  0
   32.5500  -27.7900    0.0000 C   0  0  0  0  0  0  0  0  0  0  0  0
   32.5500  -26.3900    0.0000 N   0  0  0  0  0  0  0  0  0  0  0  0
   31.3600  -25.6900    0.0000 C   0  0  0  0  0  0  0  0  0  0  0  0
   30.1700  -26.3900    0.0000 C   0  0  0  0  0  0  0  0  0  0  0  0
   33.8100  -28.4900    0.0000 N   0  0  0  0  0  0  0  0  0  0  0  0
   35.0000  -27.7900    0.0000 C   0  0  0  0  0  0  0  0  0  0  0  0
   36.1900  -28.4900    0.0000 C   0  0  0  0  0  0  0  0  0  0  0  0
   37.3800  -27.7900    0.0000 C   0  0  0  0  0  0  0  0  0  0  0  0
   37.3800  -26.3900    0.0000 C   0  0  0  0  0  0  0  0  0  0  0  0
   36.1900  -25.6900    0.0000 C   0  0  0  0  0  0  0  0  0  0  0  0
   35.0000  -26.3900    0.0000 C   0  0  0  0  0  0  0  0  0  0  0  0
   28.9100  -25.6900    0.0000 C   0  0  0  0  0  0  0  0  0  0  0  0
   38.6400  -25.6900    0.0000 C   0  0  0  0  0  0  0  0  0  0  0  0
   39.8300  -24.9900    0.0000 N   0  0  0  0  0  0  0  0  0  0  0  0
   24.0800  -25.6900    0.0000 C   0  0  0  0  0  0  0  0  0  0  0  0
   22.8200  -26.3900    0.0000 C   0  0  0  0  0  0  0  0  0  0  0  0
   21.6300  -25.6900    0.0000 C   0  0  0  0  0  0  0  0  0  0  0  0
   20.4400  -24.9900    0.0000 N   0  0  0  0  0  0  0  0  0  0  0  0
   26.4600  -29.8900    0.0000 C   0  0  0  0  0  0  0  0  0  0  0  0
   39.9000  -29.3300    0.0000 Cl  0  0  0  0  0  0  0  0  0  0  0  0
   30.8992  -18.5945    0.0000 C   0  0  0  0  0  0  0  0  0  0  0  0
   32.1576  -19.2936    0.0000 C   0  0  0  0  0  0  0  0  0  0  0  0
   33.3460  -18.5945    0.0000 C   0  0  0  0  0  0  0  0  0  0  0  0
   34.5345  -19.2936    0.0000 C   0  0  0  0  0  0  0  0  0  0  0  0
   35.7928  -18.5945    0.0000 O   0  0  0  0  0  0  0  0  0  0  0  0
   29.7108  -19.2936    0.0000 O   0  0  0  0  0  0  0  0  0  0  0  0
   30.8992  -17.1963    0.0000 O   0  0  0  0  0  0  0  0  0  0  0  0
   34.5345  -20.6917    0.0000 O   0  0  0  0  0  0  0  0  0  0  0  0
   26.5368  -16.8840    0.0000 C   0  0  0  0  0  0  0  0  0  0  0  0
   26.5368  -15.4243    0.0000 C   0  0  0  0  0  0  0  0  0  0  0  0
   25.2162  -17.3012    0.0000 N   0  0  0  0  0  0  0  0  0  0  0  0
   27.7880  -17.5096    0.0000 N   0  0  0  0  0  0  0  0  0  0  0  0
   25.2162  -15.0073    0.0000 N   0  0  0  0  0  0  0  0  0  0  0  0
   27.7880  -14.7987    0.0000 C   0  0  0  0  0  0  0  0  0  0  0  0
   24.3820  -16.1889    0.0000 C   0  0  0  0  0  0  0  0  0  0  0  0
   28.9697  -16.8840    0.0000 C   0  0  0  0  0  0  0  0  0  0  0  0
   28.9697  -15.4243    0.0000 N   0  0  0  0  0  0  0  0  0  0  0  0
   27.7880  -13.4085    0.0000 N   0  0  0  0  0  0  0  0  0  0  0  0
   25.2162  -18.6945    0.0000 C   0  0  0  0  0  0  0  0  0  0  0  0
   24.0155  -19.3876    0.0000 C   0  0  0  0  0  0  0  0  0  0  0  0
   22.8023  -18.6870    0.0000 O   0  0  0  0  0  0  0  0  0  0  0  0
   21.5805  -19.3928    0.0000 C   0  0  0  0  0  0  0  0  0  0  0  0
   20.3622  -18.6904    0.0000 P   0  0  0  0  0  0  0  0  0  0  0  0
   19.1554  -17.9937    0.0000 O   0  0  0  0  0  0  0  0  0  0  0  0
   19.6691  -19.8908    0.0000 O   0  0  0  0  0  0  0  0  0  0  0  0
   21.0616  -17.4784    0.0000 O   0  0  0  0  0  0  0  0  0  0  0  0
   19.1554  -16.5955    0.0000 C   0  0  0  0  0  0  0  0  0  0  0  0
   19.6691  -21.2890    0.0000 C   0  0  0  0  0  0  0  0  0  0  0  0
   17.9438  -15.8681    0.0000 O   0  0  0  0  0  0  0  0  0  0  0  0
   16.7329  -16.5671    0.0000 C   0  0  0  0  0  0  0  0  0  0  0  0
   15.5220  -15.8681    0.0000 O   0  0  0  0  0  0  0  0  0  0  0  0
   14.3112  -16.5671    0.0000 C   0  0  0  0  0  0  0  0  0  0  0  0
   13.1003  -15.8681    0.0000 C   0  0  0  0  0  0  0  0  0  0  0  0
   18.4331  -22.0200    0.0000 O   0  0  0  0  0  0  0  0  0  0  0  0
   17.2222  -21.3209    0.0000 C   0  0  0  0  0  0  0  0  0  0  0  0
   16.0114  -22.0200    0.0000 O   0  0  0  0  0  0  0  0  0  0  0  0
   14.8006  -21.3209    0.0000 C   0  0  0  0  0  0  0  0  0  0  0  0
   13.5897  -22.0200    0.0000 C   0  0  0  0  0  0  0  0  0  0  0  0
   16.7329  -17.9651    0.0000 O   0  0  0  0  0  0  0  0  0  0  0  0
   14.3112  -17.9652    0.0000 C   0  0  0  0  0  0  0  0  0  0  0  0
   17.2222  -19.9230    0.0000 O   0  0  0  0  0  0  0  0  0  0  0  0
   14.8006  -19.9229    0.0000 C   0  0  0  0  0  0  0  0  0  0  0  0
   24.0154  -20.7900    0.0000 C   0  0  0  0  0  0  0  0  0  0  0  0
   25.0103  -17.6390    0.0000 N   0  0  0  0  0  0  0  0  0  0  0  0
   23.6350  -18.1111    0.0000 C   0  0  0  0  0  0  0  0  0  0  0  0
   21.3970  -18.1111    0.0000 C   0  0  0  0  0  0  0  0  0  0  0  0
   20.1381  -17.4117    0.0000 C   0  0  0  0  0  0  0  0  0  0  0  0
   18.9492  -18.1111    0.0000 O   0  0  0  0  0  0  0  0  0  0  0  0
   21.8166  -19.4399    0.0000 S   0  0  0  0  0  0  0  0  0  0  0  0
   22.5160  -17.2718    0.0000 O   0  0  0  0  0  0  0  0  0  0  0  0
   23.2154  -19.4399    0.0000 C   0  0  0  0  0  0  0  0  0  0  0  0
   25.0206  -16.2402    0.0000 C   0  0  0  0  0  0  0  0  0  0  0  0
   26.2146  -15.5496    0.0000 C   0  0  0  0  0  0  0  0  0  0  0  0
   27.4684  -16.2582    0.0000 C   0  0  0  0  0  0  0  0  0  0  0  0
   27.4581  -17.6570    0.0000 N   0  0  0  0  0  0  0  0  0  0  0  0
   26.2641  -18.3476    0.0000 C   0  0  0  0  0  0  0  0  0  0  0  0
   28.6624  -15.5676    0.0000 N   0  0  0  0  0  0  0  0  0  0  0  0
   26.1549  -14.1509    0.0000 F   0  0  0  0  0  0  0  0  0  0  0  0
   26.2538  -19.7463    0.0000 O   0  0  0  0  0  0  0  0  0  0  0  0
  1  2  2  0
  2  3  1  0
  3  4  2  0
  4  5  1  0
  5  6  2  0
  1  6  1  0
  4  7  1  0
  7  8  1  0
  8  9  2  0
  9 10  1  0
 10 11  2  0
 11 12  1  0
 12 13  2  0
  8 13  1  0
 10 14  1  0
 14 15  1  0
 15 16  2  0
 16 17  1  0
 17 18  2  0
 18 19  1  0
 19 20  2  0
 15 20  1  0
  5 21  1  0
 18 22  1  0
 22 23  3  0
  1 24  1  0
 24 25  2  0
 25 26  1  0
 26 27  3  0
  3 28  1  0
 30 31  1  0
 31 32  2  0
 32 33  1  0
 33 34  1  0
 30 35  1  0
 30 36  2  0
 33 37  2  0
 39 42  1  0
 39 43  1  0
 40 44  1  0
 41 45  2  0
 43 46  2  0
 42 44  2  0
 45 46  1  0
 38 39  2  0
 38 40  1  0
 38 41  1  0
 43 47  1  0
 40 48  1  0
 48 49  1  0
 49 50  1  0
 50 51  1  0
 51 52  1  0
 52 53  1  0
 52 54  1  0
 52 55  2  0
 53 56  1  0
 54 57  1  0
 56 58  1  0
 58 59  1  0
 59 60  1  0
 60 61  1  0
 61 62  1  0
 57 63  1  0
 63 64  1  0
 64 65  1  0
 65 66  1  0
 66 67  1  0
 59 68  2  0
 61 69  1  0
 64 70  2  0
 66 71  1  0
 49 72  1  1
 80 78  1  0
 76 77  1  0
 74 73  1  6
 75 76  1  6
 78 75  1  0
 73 81  1  0
 81 82  2  0
 82 83  1  0
 83 84  2  0
 84 85  1  0
 85 73  1  0
 75 79  1  0
 83 86  1  0
 79 74  1  0
 82 87  1  0
 74 80  1  0
 85 88  2  0
M  END
