 
     RDKit          2D

123131  0  0  1  0  0  0  0  0999 V2000
   19.6000  -28.4200    0.0000 C   0  0  0  0  0  0  0  0  0  0  0  0
   19.6000  -29.7500    0.0000 C   0  0  0  0  0  0  0  0  0  0  0  0
   20.7900  -30.4500    0.0000 C   0  0  0  0  0  0  0  0  0  0  0  0
   21.9100  -29.7500    0.0000 C   0  0  0  0  0  0  0  0  0  0  0  0
   21.9100  -28.4200    0.0000 C   0  0  0  0  0  0  0  0  0  0  0  0
   20.7900  -27.7200    0.0000 C   0  0  0  0  0  0  0  0  0  0  0  0
   23.1000  -30.4500    0.0000 C   0  0  0  0  0  0  0  0  0  0  0  0
   24.3600  -29.7500    0.0000 C   0  0  0  0  0  0  0  0  0  0  0  0
   24.3600  -28.4200    0.0000 C   0  0  0  0  0  0  0  0  0  0  0  0
   23.1000  -27.7200    0.0000 C   0  0  0  0  0  0  0  0  0  0  0  0
   25.4100  -27.7200    0.0000 C   0  0  0  0  0  0  0  0  0  0  0  0
   25.4100  -26.3900    0.0000 C   0  0  0  0  0  0  0  0  0  0  0  0
   24.3600  -25.6900    0.0000 C   0  0  0  0  0  0  0  0  0  0  0  0
   23.1000  -26.3900    0.0000 C   0  0  0  0  0  0  0  0  0  0  0  0
   27.7200  -27.7200    0.0000 C   0  0  0  0  0  0  0  0  0  0  0  0
   27.7200  -26.3900    0.0000 C   0  0  0  0  0  0  0  0  0  0  0  0
   26.5300  -25.6900    0.0000 C   0  0  0  0  0  0  0  0  0  0  0  0
   18.4100  -30.4500    0.0000 O   0  0  0  0  0  0  0  0  0  0  0  0
   21.9100  -27.0200    0.0000 C   0  0  0  0  0  0  0  0  0  0  0  0
   23.1000  -29.0500    0.0000 F   0  0  0  0  0  0  0  0  0  0  0  0
   21.9100  -25.6900    0.0000 O   0  0  0  0  0  0  0  0  0  0  0  0
   25.4100  -24.9900    0.0000 C   0  0  0  0  0  0  0  0  0  0  0  0
   27.9300  -24.7800    0.0000 O   0  0  0  0  0  0  0  0  0  0  0  0
   29.1200  -26.3900    0.0000 C   0  0  0  0  0  0  0  0  0  0  0  0
   23.1000  -31.8500    0.0000 F   0  0  0  0  0  0  0  0  0  0  0  0
   26.5300  -24.2900    0.0000 C   0  0  0  0  0  0  0  0  0  0  0  0
   27.7900  -23.5900    0.0000 O   0  0  0  0  0  0  0  0  0  0  0  0
   25.2700  -23.5900    0.0000 S   0  0  0  0  0  0  0  0  0  0  0  0
   24.0800  -24.2900    0.0000 C   0  0  0  0  0  0  0  0  0  0  0  0
   22.8900  -23.5900    0.0000 F   0  0  0  0  0  0  0  0  0  0  0  0
   29.1200  -24.0800    0.0000 C   0  0  0  0  0  0  0  0  0  0  0  0
   30.3100  -24.7800    0.0000 C   0  0  0  0  0  0  0  0  0  0  0  0
   29.1200  -22.6800    0.0000 O   0  0  0  0  0  0  0  0  0  0  0  0
   30.8000  -26.1100    0.0000 C   0  0  0  0  0  0  0  0  0  0  0  0
   32.2000  -26.1100    0.0000 C   0  0  0  0  0  0  0  0  0  0  0  0
   32.6200  -24.7800    0.0000 C   0  0  0  0  0  0  0  0  0  0  0  0
   31.4300  -23.9400    0.0000 O   0  0  0  0  0  0  0  0  0  0  0  0
    8.4000  -13.4400    0.0000 C   0  0  0  0  0  0  0  0  0  0  0  0
    8.4000  -11.9700    0.0000 C   0  0  0  0  0  0  0  0  0  0  0  0
    9.6600  -11.2700    0.0000 C   0  0  0  0  0  0  0  0  0  0  0  0
   10.8500  -11.9700    0.0000 C   0  0  0  0  0  0  0  0  0  0  0  0
   10.8500  -13.4400    0.0000 C   0  0  0  0  0  0  0  0  0  0  0  0
    9.6600  -14.1400    0.0000 C   0  0  0  0  0  0  0  0  0  0  0  0
   12.0400  -14.1400    0.0000 C   0  0  0  0  0  0  0  0  0  0  0  0
   13.2300  -13.4400    0.0000 C   0  0  0  0  0  0  0  0  0  0  0  0
   14.4200  -14.1400    0.0000 N   0  0  0  0  0  0  0  0  0  0  0  0
   15.6800  -13.4400    0.0000 C   0  0  0  0  0  0  0  0  0  0  0  0
   16.8700  -14.1400    0.0000 C   0  0  0  0  0  0  0  0  0  0  0  0
   18.0600  -13.4400    0.0000 C   0  0  0  0  0  0  0  0  0  0  0  0
   19.2500  -14.1400    0.0000 C   0  0  0  0  0  0  0  0  0  0  0  0
   20.4400  -13.4400    0.0000 C   0  0  0  0  0  0  0  0  0  0  0  0
   21.6300  -14.1400    0.0000 C   0  0  0  0  0  0  0  0  0  0  0  0
   22.8200  -13.4400    0.0000 O   0  0  0  0  0  0  0  0  0  0  0  0
   12.0400  -15.5400    0.0000 O   0  0  0  0  0  0  0  0  0  0  0  0
   24.0800  -14.1400    0.0000 C   0  0  0  0  0  0  0  0  0  0  0  0
   25.2700  -13.4400    0.0000 C   0  0  0  0  0  0  0  0  0  0  0  0
   26.4600  -14.1400    0.0000 O   0  0  0  0  0  0  0  0  0  0  0  0
   27.6500  -13.4400    0.0000 C   0  0  0  0  0  0  0  0  0  0  0  0
   28.8400  -14.1400    0.0000 C   0  0  0  0  0  0  0  0  0  0  0  0
   30.0300  -13.4400    0.0000 C   0  0  0  0  0  0  0  0  0  0  0  0
   31.2900  -14.1400    0.0000 C   0  0  0  0  0  0  0  0  0  0  0  0
   31.2900  -15.5400    0.0000 C   0  0  0  0  0  0  0  0  0  0  0  0
   30.1000  -16.2400    0.0000 C   0  0  0  0  0  0  0  0  0  0  0  0
   28.8400  -15.5400    0.0000 C   0  0  0  0  0  0  0  0  0  0  0  0
   27.5800  -16.2400    0.0000 Cl  0  0  0  0  0  0  0  0  0  0  0  0
   30.0300  -11.9700    0.0000 Cl  0  0  0  0  0  0  0  0  0  0  0  0
    7.2100  -14.1400    0.0000 C   0  0  0  0  0  0  0  0  0  0  0  0
    6.0200  -13.4400    0.0000 O   0  0  0  0  0  0  0  0  0  0  0  0
    7.2100  -11.2700    0.0000 O   0  0  0  0  0  0  0  0  0  0  0  0
   19.1800  -20.0900    0.0000 C   0  0  0  0  0  0  0  0  0  0  0  0
   20.5800  -20.0900    0.0000 C   0  0  0  0  0  0  0  0  0  0  0  0
   21.9800  -20.0900    0.0000 C   0  0  0  0  0  0  0  0  0  0  0  0
   20.5800  -18.6900    0.0000 C   0  0  0  0  0  0  0  0  0  0  0  0
   20.5800  -21.4900    0.0000 C   0  0  0  0  0  0  0  0  0  0  0  0
   19.3900  -22.1900    0.0000 O   0  0  0  0  0  0  0  0  0  0  0  0
   21.8400  -22.1900    0.0000 O   0  0  0  0  0  0  0  0  0  0  0  0
   21.8400  -17.9900    0.0000 C   0  0  0  0  0  0  0  0  0  0  0  0
   21.8400  -16.5900    0.0000 C   0  0  0  0  0  0  0  0  0  0  0  0
   20.5800  -15.8900    0.0000 C   0  0  0  0  0  0  0  0  0  0  0  0
   19.3900  -16.5900    0.0000 C   0  0  0  0  0  0  0  0  0  0  0  0
   19.3900  -17.9900    0.0000 C   0  0  0  0  0  0  0  0  0  0  0  0
   22.6800  -21.2800    0.0000 C   0  0  0  0  0  0  0  0  0  0  0  0
   24.0800  -21.2800    0.0000 C   0  0  0  0  0  0  0  0  0  0  0  0
   24.7800  -20.0900    0.0000 C   0  0  0  0  0  0  0  0  0  0  0  0
   24.0800  -18.9000    0.0000 C   0  0  0  0  0  0  0  0  0  0  0  0
   22.6800  -18.9000    0.0000 C   0  0  0  0  0  0  0  0  0  0  0  0
   18.4800  -18.9000    0.0000 C   0  0  0  0  0  0  0  0  0  0  0  0
   17.0800  -18.9000    0.0000 C   0  0  0  0  0  0  0  0  0  0  0  0
   16.3800  -20.0900    0.0000 C   0  0  0  0  0  0  0  0  0  0  0  0
   17.0800  -21.2800    0.0000 C   0  0  0  0  0  0  0  0  0  0  0  0
   18.4800  -21.2800    0.0000 C   0  0  0  0  0  0  0  0  0  0  0  0
    8.3300  -15.8900    0.0000 C   0  0  0  0  0  0  0  0  0  0  0  0
    8.3300  -14.4200    0.0000 C   0  0  0  0  0  0  0  0  0  0  0  0
    9.5900  -13.7200    0.0000 C   0  0  0  0  0  0  0  0  0  0  0  0
   10.7800  -14.4200    0.0000 C   0  0  0  0  0  0  0  0  0  0  0  0
   10.7800  -15.8900    0.0000 C   0  0  0  0  0  0  0  0  0  0  0  0
    9.5900  -16.5900    0.0000 C   0  0  0  0  0  0  0  0  0  0  0  0
   12.0400  -16.5900    0.0000 C   0  0  0  0  0  0  0  0  0  0  0  0
   13.2300  -15.8900    0.0000 C   0  0  0  0  0  0  0  0  0  0  0  0
   14.4200  -16.5900    0.0000 N   0  0  0  0  0  0  0  0  0  0  0  0
   15.6800  -15.8900    0.0000 C   0  0  0  0  0  0  0  0  0  0  0  0
   16.8700  -16.5900    0.0000 C   0  0  0  0  0  0  0  0  0  0  0  0
   18.0600  -15.8900    0.0000 C   0  0  0  0  0  0  0  0  0  0  0  0
   19.2500  -16.5900    0.0000 C   0  0  0  0  0  0  0  0  0  0  0  0
   20.4400  -15.8900    0.0000 C   0  0  0  0  0  0  0  0  0  0  0  0
   21.6300  -16.5900    0.0000 C   0  0  0  0  0  0  0  0  0  0  0  0
   22.8200  -15.8900    0.0000 O   0  0  0  0  0  0  0  0  0  0  0  0
   12.0400  -17.9900    0.0000 O   0  0  0  0  0  0  0  0  0  0  0  0
   24.0800  -16.5900    0.0000 C   0  0  0  0  0  0  0  0  0  0  0  0
   25.2700  -15.8900    0.0000 C   0  0  0  0  0  0  0  0  0  0  0  0
   26.4600  -16.5900    0.0000 O   0  0  0  0  0  0  0  0  0  0  0  0
   27.6500  -15.8900    0.0000 C   0  0  0  0  0  0  0  0  0  0  0  0
   28.8400  -16.5900    0.0000 C   0  0  0  0  0  0  0  0  0  0  0  0
   30.0300  -15.8900    0.0000 C   0  0  0  0  0  0  0  0  0  0  0  0
   31.2900  -16.5900    0.0000 C   0  0  0  0  0  0  0  0  0  0  0  0
   31.2900  -17.9900    0.0000 C   0  0  0  0  0  0  0  0  0  0  0  0
   30.1000  -18.6900    0.0000 C   0  0  0  0  0  0  0  0  0  0  0  0
   28.8400  -17.9900    0.0000 C   0  0  0  0  0  0  0  0  0  0  0  0
   27.5800  -18.6900    0.0000 Cl  0  0  0  0  0  0  0  0  0  0  0  0
   30.0300  -14.4200    0.0000 Cl  0  0  0  0  0  0  0  0  0  0  0  0
    7.1400  -16.5900    0.0000 C   0  0  0  0  0  0  0  0  0  0  0  0
    5.9500  -15.8900    0.0000 O   0  0  0  0  0  0  0  0  0  0  0  0
    7.1400  -13.7200    0.0000 O   0  0  0  0  0  0  0  0  0  0  0  0
  1  2  1  0
  2  3  1  0
  3  4  2  0
  4  5  1  0
  5  6  1  0
  1  6  2  0
  4  7  1  0
  7  8  1  0
  9  8  1  6
  9 10  1  0
  5 10  1  0
  9 11  1  0
 11 12  1  0
 12 13  1  0
 13 14  1  0
 10 14  1  0
 11 15  1  1
 15 16  1  0
 16 17  1  0
 12 17  1  0
  2 18  2  0
  5 19  1  1
 10 20  1  6
 14 21  1  1
 12 22  1  1
 17 23  1  6
 16 24  1  6
  7 25  1  6
 17 26  1  0
 26 27  2  0
 26 28  1  0
 28 29  1  0
 29 30  1  0
 31 32  1  0
 31 23  1  0
 31 33  2  0
 32 34  2  0
 34 35  1  0
 35 36  2  0
 36 37  1  0
 32 37  1  0
 38 39  2  0
 39 40  1  0
 40 41  2  0
 41 42  1  0
 42 43  2  0
 38 43  1  0
 42 44  1  0
 44 45  1  0
 45 46  1  0
 46 47  1  0
 47 48  1  0
 48 49  1  0
 49 50  1  0
 50 51  1  0
 51 52  1  0
 52 53  1  0
 44 54  1  6
 53 55  1  0
 55 56  1  0
 56 57  1  0
 57 58  1  0
 58 59  1  0
 59 60  2  0
 60 61  1  0
 61 62  2  0
 62 63  1  0
 63 64  2  0
 59 64  1  0
 64 65  1  0
 60 66  1  0
 38 67  1  0
 67 68  1  0
 39 69  1  0
 70 71  1  0
 71 72  1  0
 71 73  1  0
 71 74  1  0
 74 75  2  0
 74 76  1  0
 73 77  2  0
 77 78  1  0
 78 79  2  0
 79 80  1  0
 80 81  2  0
 73 81  1  0
 72 82  2  0
 82 83  1  0
 83 84  2  0
 84 85  1  0
 85 86  2  0
 72 86  1  0
 70 87  2  0
 87 88  1  0
 88 89  2  0
 89 90  1  0
 90 91  2  0
 70 91  1  0
 92 93  2  0
 93 94  1  0
 94 95  2  0
 95 96  1  0
 96 97  2  0
 92 97  1  0
 96 98  1  0
 98 99  1  0
 99100  1  0
100101  1  0
101102  1  0
102103  1  0
103104  1  0
104105  1  0
105106  1  0
106107  1  0
 98108  1  6
107109  1  0
109110  1  0
110111  1  0
111112  1  0
112113  1  0
113114  2  0
114115  1  0
115116  2  0
116117  1  0
117118  2  0
113118  1  0
118119  1  0
114120  1  0
 92121  1  0
121122  1  0
 93123  1  0
M  END
