 
     RDKit          2D

107118  0  0  0  0  0  0  0  0999 V2000
   28.7000  -21.1400    0.0000 C   0  0  0  0  0  0  0  0  0  0  0  0
   28.2800  -19.8100    0.0000 N   0  0  0  0  0  0  0  0  0  0  0  0
   30.1000  -21.1400    0.0000 C   0  0  0  0  0  0  0  0  0  0  0  0
   28.0000  -22.3300    0.0000 C   0  0  0  0  0  0  0  0  0  0  0  0
   29.4000  -18.9700    0.0000 C   0  0  0  0  0  0  0  0  0  0  0  0
   27.0900  -19.1100    0.0000 C   0  0  0  0  0  0  0  0  0  0  0  0
   30.5900  -19.8100    0.0000 N   0  0  0  0  0  0  0  0  0  0  0  0
   30.8000  -22.3300    0.0000 C   0  0  0  0  0  0  0  0  0  0  0  0
   28.7000  -23.5200    0.0000 C   0  0  0  0  0  0  0  0  0  0  0  0
   27.3000  -23.5200    0.0000 C   0  0  0  0  0  0  0  0  0  0  0  0
   29.4000  -17.5700    0.0000 O   0  0  0  0  0  0  0  0  0  0  0  0
   25.9000  -19.8100    0.0000 C   0  0  0  0  0  0  0  0  0  0  0  0
   30.1000  -23.5200    0.0000 C   0  0  0  0  0  0  0  0  0  0  0  0
   28.0000  -24.7800    0.0000 O   0  0  0  0  0  0  0  0  0  0  0  0
   30.6600  -16.8700    0.0000 C   0  0  0  0  0  0  0  0  0  0  0  0
   24.6400  -19.1800    0.0000 C   0  0  0  0  0  0  0  0  0  0  0  0
   25.9000  -21.2100    0.0000 C   0  0  0  0  0  0  0  0  0  0  0  0
   30.6600  -15.4700    0.0000 C   0  0  0  0  0  0  0  0  0  0  0  0
   23.4500  -19.8800    0.0000 C   0  0  0  0  0  0  0  0  0  0  0  0
   24.7100  -21.9800    0.0000 C   0  0  0  0  0  0  0  0  0  0  0  0
   23.4500  -21.2800    0.0000 C   0  0  0  0  0  0  0  0  0  0  0  0
   22.2600  -21.9800    0.0000 C   0  0  0  0  0  0  0  0  0  0  0  0
   21.0000  -21.3500    0.0000 C   0  0  0  0  0  0  0  0  0  0  0  0
   22.2600  -23.3800    0.0000 C   0  0  0  0  0  0  0  0  0  0  0  0
   21.0000  -19.8800    0.0000 C   0  0  0  0  0  0  0  0  0  0  0  0
   19.8100  -22.0500    0.0000 C   0  0  0  0  0  0  0  0  0  0  0  0
   21.0700  -24.1500    0.0000 C   0  0  0  0  0  0  0  0  0  0  0  0
   19.8800  -19.1100    0.0000 N   0  0  0  0  0  0  0  0  0  0  0  0
   22.1200  -19.0400    0.0000 N   0  0  0  0  0  0  0  0  0  0  0  0
   19.8100  -23.4500    0.0000 C   0  0  0  0  0  0  0  0  0  0  0  0
   20.3000  -17.7800    0.0000 C   0  0  0  0  0  0  0  0  0  0  0  0
   21.7000  -17.7800    0.0000 O   0  0  0  0  0  0  0  0  0  0  0  0
   19.3900  -16.6600    0.0000 O   0  0  0  0  0  0  0  0  0  0  0  0
   25.9000  -23.5200    0.0000 O   0  0  0  0  0  0  0  0  0  0  0  0
   25.2000  -24.7324    0.0000 C   0  0  0  0  0  0  0  0  0  0  0  0
   25.8904  -25.9279    0.0000 C   0  0  0  0  0  0  0  0  0  0  0  0
   25.4778  -27.2348    0.0000 C   0  0  0  0  0  0  0  0  0  0  0  0
   26.5915  -28.0338    0.0000 O   0  0  0  0  0  0  0  0  0  0  0  0
   27.6955  -27.2215    0.0000 C   0  0  0  0  0  0  0  0  0  0  0  0
   27.2641  -25.9206    0.0000 O   0  0  0  0  0  0  0  0  0  0  0  0
   24.1529  -27.6759    0.0000 C   0  0  0  0  0  0  0  0  0  0  0  0
   29.0543  -27.6540    0.0000 O   0  0  0  0  0  0  0  0  0  0  0  0
   27.8489  -14.4454    0.0000 C   0  0  0  0  0  0  0  0  0  0  0  0
   27.4281  -13.1131    0.0000 N   0  0  0  0  0  0  0  0  0  0  0  0
   29.2513  -14.4454    0.0000 C   0  0  0  0  0  0  0  0  0  0  0  0
   27.1476  -15.6376    0.0000 C   0  0  0  0  0  0  0  0  0  0  0  0
   28.5500  -12.2716    0.0000 C   0  0  0  0  0  0  0  0  0  0  0  0
   26.2360  -12.4118    0.0000 C   0  0  0  0  0  0  0  0  0  0  0  0
   29.7422  -13.1131    0.0000 N   0  0  0  0  0  0  0  0  0  0  0  0
   29.9526  -15.6376    0.0000 C   0  0  0  0  0  0  0  0  0  0  0  0
   27.8489  -16.8296    0.0000 C   0  0  0  0  0  0  0  0  0  0  0  0
   26.4464  -16.8296    0.0000 C   0  0  0  0  0  0  0  0  0  0  0  0
   28.5500  -10.8692    0.0000 O   0  0  0  0  0  0  0  0  0  0  0  0
   24.9738  -13.1131    0.0000 C   0  0  0  0  0  0  0  0  0  0  0  0
   29.2513  -16.8296    0.0000 C   0  0  0  0  0  0  0  0  0  0  0  0
   27.1476  -18.0919    0.0000 O   0  0  0  0  0  0  0  0  0  0  0  0
   29.8123  -10.1679    0.0000 C   0  0  0  0  0  0  0  0  0  0  0  0
   23.7816  -12.4820    0.0000 C   0  0  0  0  0  0  0  0  0  0  0  0
   24.9739  -14.5155    0.0000 C   0  0  0  0  0  0  0  0  0  0  0  0
   29.8123   -8.7654    0.0000 C   0  0  0  0  0  0  0  0  0  0  0  0
   22.5896  -13.1832    0.0000 C   0  0  0  0  0  0  0  0  0  0  0  0
   23.8518  -15.2869    0.0000 C   0  0  0  0  0  0  0  0  0  0  0  0
   22.5896  -14.5857    0.0000 C   0  0  0  0  0  0  0  0  0  0  0  0
   21.3975  -15.2869    0.0000 C   0  0  0  0  0  0  0  0  0  0  0  0
   20.1353  -14.6558    0.0000 C   0  0  0  0  0  0  0  0  0  0  0  0
   21.3975  -16.6894    0.0000 C   0  0  0  0  0  0  0  0  0  0  0  0
   20.1353  -13.1832    0.0000 C   0  0  0  0  0  0  0  0  0  0  0  0
   18.9432  -15.3570    0.0000 C   0  0  0  0  0  0  0  0  0  0  0  0
   20.2054  -17.4608    0.0000 C   0  0  0  0  0  0  0  0  0  0  0  0
   19.0133  -12.3418    0.0000 N   0  0  0  0  0  0  0  0  0  0  0  0
   21.2573  -12.3417    0.0000 N   0  0  0  0  0  0  0  0  0  0  0  0
   18.9433  -16.7595    0.0000 C   0  0  0  0  0  0  0  0  0  0  0  0
   19.4340  -11.0095    0.0000 C   0  0  0  0  0  0  0  0  0  0  0  0
   20.8365  -11.0094    0.0000 O   0  0  0  0  0  0  0  0  0  0  0  0
   18.5224   -9.9575    0.0000 O   0  0  0  0  0  0  0  0  0  0  0  0
   25.0439  -16.8295    0.0000 O   0  0  0  0  0  0  0  0  0  0  0  0
   24.2898  -17.9262    0.0000 C   0  0  0  0  0  0  0  0  0  0  0  0
   24.9924  -19.1430    0.0000 C   0  0  0  0  0  0  0  0  0  0  0  0
   24.4362  -20.3932    0.0000 C   0  0  0  0  0  0  0  0  0  0  0  0
   25.4534  -21.3085    0.0000 O   0  0  0  0  0  0  0  0  0  0  0  0
   26.6381  -20.6239    0.0000 C   0  0  0  0  0  0  0  0  0  0  0  0
   26.3532  -19.2856    0.0000 O   0  0  0  0  0  0  0  0  0  0  0  0
   23.0888  -20.6800    0.0000 C   0  0  0  0  0  0  0  0  0  0  0  0
   27.9115  -21.1900    0.0000 O   0  0  0  0  0  0  0  0  0  0  0  0
   14.3852  -13.4637    0.0000 K   0  0  0  0  0 15  0  0  0  0  0  0
    7.3500  -17.0800    0.0000 C   0  0  0  0  0  0  0  0  0  0  0  0
    7.3500  -18.4800    0.0000 C   0  0  0  0  0  0  0  0  0  0  0  0
    8.5624  -19.1800    0.0000 C   0  0  0  0  0  0  0  0  0  0  0  0
    9.7749  -18.4800    0.0000 C   0  0  0  0  0  0  0  0  0  0  0  0
    9.7749  -17.0800    0.0000 C   0  0  0  0  0  0  0  0  0  0  0  0
    8.5624  -16.3800    0.0000 C   0  0  0  0  0  0  0  0  0  0  0  0
   12.1997  -18.4800    0.0000 C   0  0  0  0  0  0  0  0  0  0  0  0
   12.1997  -17.0800    0.0000 C   0  0  0  0  0  0  0  0  0  0  0  0
   10.9873  -16.3800    0.0000 C   0  0  0  0  0  0  0  0  0  0  0  0
   13.4122  -19.1800    0.0000 C   0  0  0  0  0  0  0  0  0  0  0  0
   14.6246  -18.4800    0.0000 C   0  0  0  0  0  0  0  0  0  0  0  0
   14.6246  -17.0800    0.0000 C   0  0  0  0  0  0  0  0  0  0  0  0
   13.4122  -16.3800    0.0000 C   0  0  0  0  0  0  0  0  0  0  0  0
   15.8411  -19.1823    0.0000 Cl  0  0  0  0  0  0  0  0  0  0  0  0
   15.8411  -16.3777    0.0000 S   0  0  0  0  0  0  0  0  0  0  0  0
   17.0535  -15.6777    0.0000 N   0  0  0  0  0  0  0  0  0  0  0  0
   15.1370  -15.1579    0.0000 O   0  0  0  0  0  0  0  0  0  0  0  0
   16.5367  -17.5827    0.0000 O   0  0  0  0  0  0  0  0  0  0  0  0
   10.4862  -15.0106    0.0000 N   0  0  0  0  0  0  0  0  0  0  0  0
    9.0239  -15.0042    0.0000 C   0  0  0  0  0  0  0  0  0  0  0  0
   12.1997  -15.6800    0.0000 O   0  0  0  0  0  0  0  0  0  0  0  0
    8.0160  -14.0147    0.0000 O   0  0  0  0  0  0  0  0  0  0  0  0
  1  2  1  0
  1  3  2  0
  1  4  1  0
  2  5  1  0
  2  6  1  0
  3  7  1  0
  3  8  1  0
  4  9  2  0
  4 10  1  0
  5 11  1  0
  6 12  1  0
  8 13  2  0
 10 14  2  0
 11 15  1  0
 12 16  2  0
 12 17  1  0
 15 18  1  0
 16 19  1  0
 17 20  2  0
 19 21  2  0
 21 22  1  0
 22 23  1  0
 22 24  2  0
 23 25  1  0
 23 26  2  0
 24 27  1  0
 25 28  1  0
 25 29  2  0
 26 30  1  0
 28 31  1  0
 29 32  1  0
  5  7  2  0
  9 13  1  0
 20 21  1  0
 27 30  2  0
 31 32  1  0
 31 33  2  0
 10 34  1  0
 34 35  1  0
 35 36  1  0
 36 37  2  0
 37 38  1  0
 38 39  1  0
 39 40  1  0
 36 40  1  0
 37 41  1  0
 39 42  2  0
 43 44  1  0
 43 45  2  0
 43 46  1  0
 44 47  1  0
 44 48  1  0
 45 49  1  0
 45 50  1  0
 46 51  2  0
 46 52  1  0
 47 53  1  0
 48 54  1  0
 50 55  2  0
 52 56  2  0
 53 57  1  0
 54 58  2  0
 54 59  1  0
 57 60  1  0
 58 61  1  0
 59 62  2  0
 61 63  2  0
 63 64  1  0
 64 65  1  0
 64 66  2  0
 65 67  1  0
 65 68  2  0
 66 69  1  0
 67 70  1  0
 67 71  2  0
 68 72  1  0
 70 73  1  0
 71 74  1  0
 47 49  2  0
 51 55  1  0
 62 63  1  0
 69 72  2  0
 73 74  1  0
 73 75  2  0
 52 76  1  0
 76 77  1  0
 77 78  1  0
 78 79  2  0
 79 80  1  0
 80 81  1  0
 81 82  1  0
 78 82  1  0
 79 83  1  0
 81 84  2  0
 86 87  2  0
 87 88  1  0
 88 89  2  0
 89 90  1  0
 90 91  2  0
 86 91  1  0
 92 93  2  0
 93 94  1  0
 90 94  1  0
 92 95  1  0
 95 96  2  0
 96 97  1  0
 97 98  2  0
 93 98  1  0
 96 99  1  0
 97100  1  0
100101  1  0
100102  2  0
100103  2  0
 94104  1  0
104105  1  0
105 91  1  0
 94106  1  0
105107  2  0
M  CHG  2  70  -1  85   1
M  END
