 
     RDKit          2D

 38 40  0  0  0  0  0  0  0  0999 V2000
   20.2981  -15.8105    0.0000 C   0  0  0  0  0  0  0  0  0  0  0  0
   21.5226  -16.5029    0.0000 C   0  0  0  0  0  0  0  0  0  0  0  0
   19.0928  -16.5029    0.0000 C   0  0  0  0  0  0  0  0  0  0  0  0
   20.2981  -14.6227    0.0000 C   0  0  0  0  0  0  0  0  0  0  0  0
   21.5226  -17.9133    0.0000 C   0  0  0  0  0  0  0  0  0  0  0  0
   22.7278  -15.8040    0.0000 O   0  0  0  0  0  0  0  0  0  0  0  0
   19.0928  -17.9133    0.0000 C   0  0  0  0  0  0  0  0  0  0  0  0
   21.5033  -13.9240    0.0000 O   0  0  0  0  0  0  0  0  0  0  0  0
   19.0863  -13.9304    0.0000 O   0  0  0  0  0  0  0  0  0  0  0  0
   20.2981  -18.6250    0.0000 C   0  0  0  0  0  0  0  0  0  0  0  0
   23.9396  -16.4964    0.0000 C   0  0  0  0  0  0  0  0  0  0  0  0
   25.1450  -15.7977    0.0000 C   0  0  0  0  0  0  0  0  0  0  0  0
   23.9396  -17.8942    0.0000 O   0  0  0  0  0  0  0  0  0  0  0  0
   14.2800  -19.3900    0.0000 C   0  0  0  0  0  0  0  0  0  0  0  0
   14.2800  -20.7900    0.0000 C   0  0  0  0  0  0  0  0  0  0  0  0
   15.4924  -21.4900    0.0000 C   0  0  0  0  0  0  0  0  0  0  0  0
   16.7049  -20.7900    0.0000 C   0  0  0  0  0  0  0  0  0  0  0  0
   16.7049  -19.3900    0.0000 C   0  0  0  0  0  0  0  0  0  0  0  0
   15.4924  -18.6900    0.0000 C   0  0  0  0  0  0  0  0  0  0  0  0
   18.0364  -21.2226    0.0000 N   0  0  0  0  0  0  0  0  0  0  0  0
   18.8593  -20.0900    0.0000 C   0  0  0  0  0  0  0  0  0  0  0  0
   18.0364  -18.9574    0.0000 N   0  0  0  0  0  0  0  0  0  0  0  0
   20.2300  -20.0900    0.0000 S   0  0  0  0  0  0  0  0  0  0  0  0
   20.9300  -21.3024    0.0000 C   0  0  0  0  0  0  0  0  0  0  0  0
   20.9300  -18.8776    0.0000 O   0  0  0  0  0  0  0  0  0  0  0  0
   22.3298  -21.3024    0.0000 C   0  0  0  0  0  0  0  0  0  0  0  0
   23.0203  -22.4980    0.0000 C   0  0  0  0  0  0  0  0  0  0  0  0
   24.4203  -22.4978    0.0000 C   0  0  0  0  0  0  0  0  0  0  0  0
   25.1201  -21.2853    0.0000 C   0  0  0  0  0  0  0  0  0  0  0  0
   24.4297  -20.0898    0.0000 C   0  0  0  0  0  0  0  0  0  0  0  0
   23.0297  -20.0899    0.0000 N   0  0  0  0  0  0  0  0  0  0  0  0
   22.3349  -23.6852    0.0000 C   0  0  0  0  0  0  0  0  0  0  0  0
   25.1110  -23.6932    0.0000 O   0  0  0  0  0  0  0  0  0  0  0  0
   26.5296  -23.6932    0.0000 C   0  0  0  0  0  0  0  0  0  0  0  0
   27.2156  -24.8806    0.0000 C   0  0  0  0  0  0  0  0  0  0  0  0
   28.4280  -24.1806    0.0000 F   0  0  0  0  0  0  0  0  0  0  0  0
   26.0032  -25.5806    0.0000 F   0  0  0  0  0  0  0  0  0  0  0  0
   27.9156  -26.0931    0.0000 F   0  0  0  0  0  0  0  0  0  0  0  0
  1  2  2  0
  1  3  1  0
  1  4  1  0
  2  5  1  0
  2  6  1  0
  3  7  2  0
  4  8  1  0
  4  9  2  0
  5 10  2  0
  6 11  1  0
 11 12  1  0
 11 13  2  0
  7 10  1  0
 14 15  2  0
 15 16  1  0
 16 17  2  0
 17 18  1  0
 18 19  2  0
 14 19  1  0
 17 20  1  0
 20 21  2  0
 21 22  1  0
 18 22  1  0
 21 23  1  0
 23 24  1  0
 23 25  2  0
 24 26  1  0
 26 27  2  0
 27 28  1  0
 28 29  2  0
 29 30  1  0
 30 31  2  0
 26 31  1  0
 27 32  1  0
 28 33  1  0
 33 34  1  0
 34 35  1  0
 35 36  1  0
 35 37  1  0
 35 38  1  0
M  END
