 
     RDKit          2D

119122  0  0  0  0  0  0  0  0999 V2000
   14.9181  -21.7880    0.0000 Na  0  0  0  0  0 15  0  0  0  0  0  0
   11.7600  -23.5900    0.0000 C   0  0  0  0  0  0  0  0  0  0  0  0
   11.7600  -24.9900    0.0000 C   0  0  0  0  0  0  0  0  0  0  0  0
   12.9724  -25.6900    0.0000 C   0  0  0  0  0  0  0  0  0  0  0  0
   14.1849  -24.9900    0.0000 C   0  0  0  0  0  0  0  0  0  0  0  0
   14.1849  -23.5900    0.0000 C   0  0  0  0  0  0  0  0  0  0  0  0
   12.9724  -22.8900    0.0000 C   0  0  0  0  0  0  0  0  0  0  0  0
   15.5164  -25.4226    0.0000 N   0  0  0  0  0  0  0  0  0  0  0  0
   16.3393  -24.2900    0.0000 C   0  0  0  0  0  0  0  0  0  0  0  0
   15.5164  -23.1574    0.0000 N   0  0  0  0  0  0  0  0  0  0  0  0
   17.7100  -24.2900    0.0000 S   0  0  0  0  0  0  0  0  0  0  0  0
   18.4100  -25.5024    0.0000 C   0  0  0  0  0  0  0  0  0  0  0  0
   18.4100  -23.0776    0.0000 O   0  0  0  0  0  0  0  0  0  0  0  0
   19.8098  -25.5024    0.0000 C   0  0  0  0  0  0  0  0  0  0  0  0
   20.5003  -26.6980    0.0000 C   0  0  0  0  0  0  0  0  0  0  0  0
   21.9003  -26.6978    0.0000 C   0  0  0  0  0  0  0  0  0  0  0  0
   22.6001  -25.4853    0.0000 C   0  0  0  0  0  0  0  0  0  0  0  0
   21.9097  -24.2898    0.0000 C   0  0  0  0  0  0  0  0  0  0  0  0
   20.5097  -24.2899    0.0000 N   0  0  0  0  0  0  0  0  0  0  0  0
   19.8149  -27.8852    0.0000 C   0  0  0  0  0  0  0  0  0  0  0  0
   22.5910  -27.8932    0.0000 O   0  0  0  0  0  0  0  0  0  0  0  0
   24.0096  -27.8932    0.0000 C   0  0  0  0  0  0  0  0  0  0  0  0
   24.6956  -29.0806    0.0000 C   0  0  0  0  0  0  0  0  0  0  0  0
   26.1097  -29.0806    0.0000 C   0  0  0  0  0  0  0  0  0  0  0  0
   26.7968  -30.2700    0.0000 O   0  0  0  0  0  0  0  0  0  0  0  0
   28.2097  -30.2699    0.0000 C   0  0  0  0  0  0  0  0  0  0  0  0
   19.9500  -18.9700    0.0000 C   0  0  0  0  0  0  0  0  0  0  0  0
   19.9500  -17.5700    0.0000 C   0  0  0  0  0  0  0  0  0  0  0  0
   18.6900  -19.6700    0.0000 C   0  0  0  0  0  0  0  0  0  0  0  0
   21.1400  -19.6700    0.0000 C   0  0  0  0  0  0  0  0  0  0  0  0
   18.6200  -16.8700    0.0000 C   0  0  0  0  0  0  0  0  0  0  0  0
   17.4300  -19.0400    0.0000 C   0  0  0  0  0  0  0  0  0  0  0  0
   22.3300  -18.9700    0.0000 N   0  0  0  0  0  0  0  0  0  0  0  0
   21.1400  -21.0700    0.0000 O   0  0  0  0  0  0  0  0  0  0  0  0
   17.4300  -17.5700    0.0000 C   0  0  0  0  0  0  0  0  0  0  0  0
   18.6200  -15.4700    0.0000 O   0  0  0  0  0  0  0  0  0  0  0  0
   16.2400  -19.7400    0.0000 O   0  0  0  0  0  0  0  0  0  0  0  0
   23.5900  -19.6700    0.0000 C   0  0  0  0  0  0  0  0  0  0  0  0
   16.2400  -16.8700    0.0000 O   0  0  0  0  0  0  0  0  0  0  0  0
   17.4300  -14.7700    0.0000 C   0  0  0  0  0  0  0  0  0  0  0  0
   24.7800  -18.9700    0.0000 C   0  0  0  0  0  0  0  0  0  0  0  0
   14.9800  -17.5700    0.0000 C   0  0  0  0  0  0  0  0  0  0  0  0
   25.9700  -19.6700    0.0000 C   0  0  0  0  0  0  0  0  0  0  0  0
   24.7800  -17.5000    0.0000 C   0  0  0  0  0  0  0  0  0  0  0  0
   27.1600  -18.9700    0.0000 C   0  0  0  0  0  0  0  0  0  0  0  0
   25.9700  -16.8000    0.0000 C   0  0  0  0  0  0  0  0  0  0  0  0
   27.1600  -17.5000    0.0000 C   0  0  0  0  0  0  0  0  0  0  0  0
   28.4200  -16.8000    0.0000 O   0  0  0  0  0  0  0  0  0  0  0  0
   29.6100  -17.5000    0.0000 C   0  0  0  0  0  0  0  0  0  0  0  0
   30.8700  -16.8000    0.0000 C   0  0  0  0  0  0  0  0  0  0  0  0
   32.0600  -17.5000    0.0000 N   0  0  0  0  0  0  0  0  0  0  0  0
   32.0600  -18.9700    0.0000 C   0  0  0  0  0  0  0  0  0  0  0  0
   33.3200  -16.8000    0.0000 C   0  0  0  0  0  0  0  0  0  0  0  0
   15.0500  -19.0400    0.0000 C   0  0  0  0  0  0  0  0  0  0  0  0
   24.5313  -17.0264    0.0000 C   0  0  0  0  0  0  0  0  0  0  0  0
   24.5313  -18.4300    0.0000 C   0  0  0  0  0  0  0  0  0  0  0  0
   25.9349  -18.4300    0.0000 N   0  0  0  0  0  0  0  0  0  0  0  0
   25.9349  -17.0264    0.0000 C   0  0  0  0  0  0  0  0  0  0  0  0
   27.2683  -18.8510    0.0000 C   0  0  0  0  0  0  0  0  0  0  0  0
   28.1103  -17.7281    0.0000 C   0  0  0  0  0  0  0  0  0  0  0  0
   27.2683  -16.6053    0.0000 S   0  0  0  0  0  0  0  0  0  0  0  0
   29.0929  -18.7107    0.0000 C   0  0  0  0  0  0  0  0  0  0  0  0
   29.0929  -16.7456    0.0000 C   0  0  0  0  0  0  0  0  0  0  0  0
   27.7595  -20.1844    0.0000 C   0  0  0  0  0  0  0  0  0  0  0  0
   29.1630  -20.1844    0.0000 O   0  0  0  0  0  0  0  0  0  0  0  0
   26.9173  -21.3072    0.0000 O   0  0  0  0  0  0  0  0  0  0  0  0
   23.3383  -16.3246    0.0000 N   0  0  0  0  0  0  0  0  0  0  0  0
   22.1452  -17.0264    0.0000 C   0  0  0  0  0  0  0  0  0  0  0  0
   23.3383  -19.1317    0.0000 O   0  0  0  0  0  0  0  0  0  0  0  0
   22.1452  -18.4300    0.0000 O   0  0  0  0  0  0  0  0  0  0  0  0
   20.9268  -16.3295    0.0000 C   0  0  0  0  0  0  0  0  0  0  0  0
   19.7355  -17.0241    0.0000 C   0  0  0  0  0  0  0  0  0  0  0  0
   20.9268  -14.9295    0.0000 N   0  0  0  0  0  0  0  0  0  0  0  0
   18.5230  -16.3241    0.0000 C   0  0  0  0  0  0  0  0  0  0  0  0
   17.3106  -17.0241    0.0000 C   0  0  0  0  0  0  0  0  0  0  0  0
   17.3106  -18.4241    0.0000 C   0  0  0  0  0  0  0  0  0  0  0  0
   18.5230  -19.1241    0.0000 C   0  0  0  0  0  0  0  0  0  0  0  0
   19.7355  -18.4241    0.0000 C   0  0  0  0  0  0  0  0  0  0  0  0
   16.0891  -19.1295    0.0000 O   0  0  0  0  0  0  0  0  0  0  0  0
   34.0923  -18.2711    0.0000 O   0  0  0  0  0  0  0  0  0  0  0  0
   34.0923  -18.2711    0.0000 O   0  0  0  0  0  0  0  0  0  0  0  0
   34.0923  -18.2711    0.0000 O   0  0  0  0  0  0  0  0  0  0  0  0
   25.2700  -16.8000    0.0000 C   0  0  0  0  0  0  0  0  0  0  0  0
   25.2700  -18.2000    0.0000 C   0  0  0  0  0  0  0  0  0  0  0  0
   26.6700  -18.2000    0.0000 N   0  0  0  0  0  0  0  0  0  0  0  0
   26.6700  -16.8000    0.0000 C   0  0  0  0  0  0  0  0  0  0  0  0
   28.0000  -18.6200    0.0000 C   0  0  0  0  0  0  0  0  0  0  0  0
   28.8400  -17.5000    0.0000 C   0  0  0  0  0  0  0  0  0  0  0  0
   28.0000  -16.3800    0.0000 S   0  0  0  0  0  0  0  0  0  0  0  0
   29.8200  -18.4800    0.0000 C   0  0  0  0  0  0  0  0  0  0  0  0
   29.8200  -16.5200    0.0000 C   0  0  0  0  0  0  0  0  0  0  0  0
   28.4900  -20.0200    0.0000 C   0  0  0  0  0  0  0  0  0  0  0  0
   29.8900  -20.0200    0.0000 O   0  0  0  0  0  0  0  0  0  0  0  0
   27.6500  -21.1400    0.0000 O   0  0  0  0  0  0  0  0  0  0  0  0
   24.0800  -16.1000    0.0000 N   0  0  0  0  0  0  0  0  0  0  0  0
   22.8900  -16.8000    0.0000 C   0  0  0  0  0  0  0  0  0  0  0  0
   24.0800  -18.9000    0.0000 O   0  0  0  0  0  0  0  0  0  0  0  0
   22.8900  -18.2000    0.0000 O   0  0  0  0  0  0  0  0  0  0  0  0
   21.6300  -16.1000    0.0000 C   0  0  0  0  0  0  0  0  0  0  0  0
   20.4400  -16.8000    0.0000 C   0  0  0  0  0  0  0  0  0  0  0  0
   21.6300  -14.7000    0.0000 N   0  0  0  0  0  0  0  0  0  0  0  0
   19.2500  -16.1000    0.0000 C   0  0  0  0  0  0  0  0  0  0  0  0
   17.9900  -16.8000    0.0000 C   0  0  0  0  0  0  0  0  0  0  0  0
   17.9900  -18.2000    0.0000 C   0  0  0  0  0  0  0  0  0  0  0  0
   19.2500  -18.9000    0.0000 C   0  0  0  0  0  0  0  0  0  0  0  0
   20.4400  -18.2000    0.0000 C   0  0  0  0  0  0  0  0  0  0  0  0
   16.8000  -18.9000    0.0000 O   0  0  0  0  0  0  0  0  0  0  0  0
   22.2483  -16.2228    0.0000 N   0  0  0  0  0  0  0  0  0  0  0  0
   21.8345  -17.4879    0.0000 C   0  0  0  0  0  0  0  0  0  0  0  0
   21.1640  -15.4301    0.0000 C   0  0  0  0  0  0  0  0  0  0  0  0
   23.3153  -15.5992    0.0000 C   0  0  0  0  0  0  0  0  0  0  0  0
   20.5053  -17.4879    0.0000 C   0  0  0  0  0  0  0  0  0  0  0  0
   22.6157  -18.5665    0.0000 N   0  0  0  0  0  0  0  0  0  0  0  0
   20.0855  -16.2228    0.0000 N   0  0  0  0  0  0  0  0  0  0  0  0
   21.1640  -14.1009    0.0000 C   0  0  0  0  0  0  0  0  0  0  0  0
   24.3995  -16.2812    0.0000 C   0  0  0  0  0  0  0  0  0  0  0  0
   23.7875  -19.7150    0.0000 O   0  0  0  0  0  0  0  0  0  0  0  0
   21.1582  -19.7207    0.0000 O   0  0  0  0  0  0  0  0  0  0  0  0
   25.6763  -15.5992    0.0000 O   0  0  0  0  0  0  0  0  0  0  0  0
  2  3  2  0
  3  4  1  0
  4  5  2  0
  5  6  1  0
  6  7  2  0
  2  7  1  0
  5  8  1  0
  8  9  2  0
  9 10  1  0
  6 10  1  0
  9 11  1  0
 11 12  1  0
 11 13  2  0
 12 14  1  0
 14 15  2  0
 15 16  1  0
 16 17  2  0
 17 18  1  0
 18 19  2  0
 14 19  1  0
 15 20  1  0
 16 21  1  0
 21 22  1  0
 22 23  1  0
 23 24  1  0
 24 25  1  0
 25 26  1  0
 27 28  2  0
 27 29  1  0
 27 30  1  0
 28 31  1  0
 29 32  2  0
 30 33  1  0
 30 34  2  0
 31 35  2  0
 31 36  1  0
 32 37  1  0
 33 38  1  0
 35 39  1  0
 36 40  1  0
 38 41  1  0
 39 42  1  0
 41 43  2  0
 41 44  1  0
 43 45  1  0
 44 46  2  0
 45 47  2  0
 47 48  1  0
 48 49  1  0
 49 50  1  0
 50 51  1  0
 51 52  1  0
 51 53  1  0
 32 35  1  0
 46 47  1  0
 37 54  1  0
 55 56  1  0
 56 57  1  0
 57 58  1  0
 55 58  1  0
 57 59  1  0
 59 60  1  0
 60 61  1  0
 58 61  1  1
 60 62  1  0
 60 63  1  0
 59 64  1  6
 64 65  1  0
 64 66  2  0
 55 67  1  1
 67 68  1  0
 56 69  2  0
 68 70  2  0
 68 71  1  0
 71 72  1  0
 71 73  1  1
 72 74  2  0
 74 75  1  0
 75 76  2  0
 76 77  1  0
 77 78  2  0
 72 78  1  0
 76 79  1  0
 83 84  1  0
 84 85  1  0
 85 86  1  0
 83 86  1  0
 85 87  1  0
 87 88  1  0
 88 89  1  0
 86 89  1  1
 88 90  1  0
 88 91  1  0
 87 92  1  6
 92 93  1  0
 92 94  2  0
 83 95  1  1
 95 96  1  0
 84 97  2  0
 96 98  2  0
 96 99  1  0
 99100  1  0
 99101  1  1
100102  2  0
102103  1  0
103104  2  0
104105  1  0
105106  2  0
100106  1  0
104107  1  0
108109  1  0
108110  1  0
108111  1  0
109112  2  0
109113  1  0
110114  2  0
110115  1  0
111116  1  0
113117  2  0
113118  1  0
116119  1  0
112114  1  0
M  CHG  4   1   1  10  -1 113   1 118  -1
M  END
