 
     RDKit          2D

 64 69  0  0  1  0  0  0  0  0999 V2000
   22.4000  -28.3500    0.0000 C   0  0  0  0  0  0  0  0  0  0  0  0
   22.4000  -29.7500    0.0000 C   0  0  0  0  0  0  0  0  0  0  0  0
   23.5900  -30.4500    0.0000 C   0  0  0  0  0  0  0  0  0  0  0  0
   24.8500  -29.7500    0.0000 C   0  0  0  0  0  0  0  0  0  0  0  0
   24.8500  -28.3500    0.0000 C   0  0  0  0  0  0  0  0  0  0  0  0
   23.5900  -27.6500    0.0000 C   0  0  0  0  0  0  0  0  0  0  0  0
   26.0400  -30.4500    0.0000 C   0  0  0  0  0  0  0  0  0  0  0  0
   27.2300  -29.7500    0.0000 C   0  0  0  0  0  0  0  0  0  0  0  0
   27.2300  -28.3500    0.0000 C   0  0  0  0  0  0  0  0  0  0  0  0
   26.0400  -27.6500    0.0000 C   0  0  0  0  0  0  0  0  0  0  0  0
   28.4900  -27.6500    0.0000 C   0  0  0  0  0  0  0  0  0  0  0  0
   28.4900  -26.2500    0.0000 C   0  0  0  0  0  0  0  0  0  0  0  0
   27.2300  -25.5500    0.0000 C   0  0  0  0  0  0  0  0  0  0  0  0
   26.0400  -26.2500    0.0000 C   0  0  0  0  0  0  0  0  0  0  0  0
   21.2100  -30.4500    0.0000 O   0  0  0  0  0  0  0  0  0  0  0  0
   20.0200  -29.7500    0.0000 S   0  0  0  0  0  0  0  0  0  0  0  0
   18.7600  -29.0500    0.0000 O   0  0  0  0  0  0  0  0  0  0  0  0
   20.7200  -28.5600    0.0000 O   0  0  0  0  0  0  0  0  0  0  0  0
   19.3200  -30.9400    0.0000 O   0  0  0  0  0  0  0  0  0  0  0  0
   28.4900  -24.8500    0.0000 C   0  0  0  0  0  0  0  0  0  0  0  0
   30.9149  -27.6500    0.0000 C   0  0  0  0  0  0  0  0  0  0  0  0
   30.9149  -26.2500    0.0000 C   0  0  0  0  0  0  0  0  0  0  0  0
   29.7024  -25.5500    0.0000 C   0  0  0  0  0  0  0  0  0  0  0  0
   29.7024  -24.1502    0.0000 O   0  0  0  0  0  0  0  0  0  0  0  0
   16.8700  -29.0500    0.0000 Na  0  0  0  0  0 15  0  0  0  0  0  0
   28.3500  -22.8200    0.0000 C   0  0  0  0  0  0  0  0  0  0  0  0
   29.5400  -22.1200    0.0000 C   0  0  0  0  0  0  0  0  0  0  0  0
   30.7300  -22.8200    0.0000 O   0  0  0  0  0  0  0  0  0  0  0  0
   29.5400  -20.7200    0.0000 O   0  0  0  0  0  0  0  0  0  0  0  0
   15.7500  -21.4900    0.0000 C   0  0  0  0  0  0  0  0  0  0  0  0
   15.7500  -22.8900    0.0000 C   0  0  0  0  0  0  0  0  0  0  0  0
   16.9400  -23.5900    0.0000 C   0  0  0  0  0  0  0  0  0  0  0  0
   18.2000  -22.8900    0.0000 C   0  0  0  0  0  0  0  0  0  0  0  0
   18.2000  -21.4900    0.0000 C   0  0  0  0  0  0  0  0  0  0  0  0
   16.9400  -20.7900    0.0000 C   0  0  0  0  0  0  0  0  0  0  0  0
   19.3900  -23.5900    0.0000 O   0  0  0  0  0  0  0  0  0  0  0  0
   20.5800  -22.8900    0.0000 C   0  0  0  0  0  0  0  0  0  0  0  0
   21.7700  -23.5900    0.0000 C   0  0  0  0  0  0  0  0  0  0  0  0
   22.9600  -22.8900    0.0000 N   0  0  0  0  0  0  0  0  0  0  0  0
   14.5600  -20.7900    0.0000 C   0  0  0  0  0  0  0  0  0  0  0  0
   13.3700  -21.4900    0.0000 N   0  0  0  0  0  0  0  0  0  0  0  0
   12.2500  -20.7200    0.0000 C   0  0  0  0  0  0  0  0  0  0  0  0
   11.1300  -21.4900    0.0000 C   0  0  0  0  0  0  0  0  0  0  0  0
   11.5500  -22.8200    0.0000 C   0  0  0  0  0  0  0  0  0  0  0  0
   12.9500  -22.8200    0.0000 C   0  0  0  0  0  0  0  0  0  0  0  0
   10.9200  -24.0100    0.0000 C   0  0  0  0  0  0  0  0  0  0  0  0
   11.6200  -25.2000    0.0000 C   0  0  0  0  0  0  0  0  0  0  0  0
   13.0200  -25.2000    0.0000 C   0  0  0  0  0  0  0  0  0  0  0  0
   13.6500  -24.0100    0.0000 C   0  0  0  0  0  0  0  0  0  0  0  0
   22.9600  -21.4900    0.0000 C   0  0  0  0  0  0  0  0  0  0  0  0
   24.0800  -20.5800    0.0000 C   0  0  0  0  0  0  0  0  0  0  0  0
   25.4100  -20.9300    0.0000 C   0  0  0  0  0  0  0  0  0  0  0  0
   26.0400  -22.1900    0.0000 C   0  0  0  0  0  0  0  0  0  0  0  0
   25.4100  -23.4500    0.0000 C   0  0  0  0  0  0  0  0  0  0  0  0
   24.0800  -23.7300    0.0000 C   0  0  0  0  0  0  0  0  0  0  0  0
   10.9249  -26.4153    0.0000 O   0  0  0  0  0  0  0  0  0  0  0  0
   12.2500  -19.3200    0.0000 C   0  0  0  0  0  0  0  0  0  0  0  0
    9.8061  -21.0346    0.0000 C   0  0  0  0  0  0  0  0  0  0  0  0
   13.4624  -18.6200    0.0000 C   0  0  0  0  0  0  0  0  0  0  0  0
   13.4624  -17.2200    0.0000 C   0  0  0  0  0  0  0  0  0  0  0  0
   12.2500  -16.5200    0.0000 C   0  0  0  0  0  0  0  0  0  0  0  0
   11.0376  -17.2200    0.0000 C   0  0  0  0  0  0  0  0  0  0  0  0
   11.0376  -18.6200    0.0000 C   0  0  0  0  0  0  0  0  0  0  0  0
   12.2500  -15.1200    0.0000 O   0  0  0  0  0  0  0  0  0  0  0  0
  1  2  2  0
  2  3  1  0
  3  4  2  0
  4  5  1  0
  5  6  2  0
  1  6  1  0
  4  7  1  0
  7  8  1  0
  9  8  1  6
  9 10  1  0
  5 10  1  0
  9 11  1  0
 11 12  1  0
 12 13  1  0
 13 14  1  0
 10 14  1  1
  2 15  1  0
 15 16  1  0
 16 17  1  0
 16 18  2  0
 16 19  2  0
 12 20  1  1
 11 21  1  1
 21 22  1  0
 22 23  1  0
 12 23  1  0
 23 24  2  0
 26 27  1  0
 27 28  1  0
 27 29  2  0
 30 31  2  0
 31 32  1  0
 32 33  2  0
 33 34  1  0
 34 35  2  0
 30 35  1  0
 33 36  1  0
 36 37  1  0
 37 38  1  0
 38 39  1  0
 30 40  1  0
 40 41  1  0
 41 42  1  0
 42 43  2  0
 43 44  1  0
 44 45  2  0
 41 45  1  0
 44 46  1  0
 46 47  2  0
 47 48  1  0
 48 49  2  0
 45 49  1  0
 52 53  1  0
 50 39  1  0
 53 54  1  0
 51 52  1  0
 50 51  1  0
 54 55  1  0
 55 39  1  0
 47 56  1  0
 42 57  1  0
 43 58  1  0
 57 59  2  0
 59 60  1  0
 60 61  2  0
 61 62  1  0
 62 63  2  0
 57 63  1  0
 61 64  1  0
M  CHG  2  17  -1  25   1
M  END
