 
     RDKit          2D

 61 64  0  0  0  0  0  0  0  0999 V2000
   24.1031  -22.1674    0.0000 C   0  0  0  0  0  0  0  0  0  0  0  0
   22.9701  -22.8047    0.0000 C   0  0  0  0  0  0  0  0  0  0  0  0
   21.7662  -22.1674    0.0000 O   0  0  0  0  0  0  0  0  0  0  0  0
   22.9701  -24.2210    0.0000 O   0  0  0  0  0  0  0  0  0  0  0  0
   20.4915  -22.8756    0.0000 C   0  0  0  0  0  0  0  0  0  0  0  0
   19.4128  -22.0966    0.0000 C   0  0  0  0  0  0  0  0  0  0  0  0
   20.0908  -24.2414    0.0000 C   0  0  0  0  0  0  0  0  0  0  0  0
   18.2555  -22.8879    0.0000 N   0  0  0  0  0  0  0  0  0  0  0  0
   18.7293  -24.2018    0.0000 C   0  0  0  0  0  0  0  0  0  0  0  0
   25.3216  -22.8892    0.0000 C   0  0  0  0  0  0  0  0  0  0  0  0
   25.7607  -24.2172    0.0000 C   0  0  0  0  0  0  0  0  0  0  0  0
   27.1619  -24.2138    0.0000 C   0  0  0  0  0  0  0  0  0  0  0  0
   27.5915  -22.8800    0.0000 C   0  0  0  0  0  0  0  0  0  0  0  0
   26.4559  -22.0593    0.0000 C   0  0  0  0  0  0  0  0  0  0  0  0
   24.1031  -20.7511    0.0000 C   0  0  0  0  0  0  0  0  0  0  0  0
   25.3296  -20.0429    0.0000 C   0  0  0  0  0  0  0  0  0  0  0  0
   25.3296  -18.6266    0.0000 C   0  0  0  0  0  0  0  0  0  0  0  0
   24.1031  -17.9184    0.0000 C   0  0  0  0  0  0  0  0  0  0  0  0
   22.8766  -18.6266    0.0000 C   0  0  0  0  0  0  0  0  0  0  0  0
   22.8766  -20.0429    0.0000 C   0  0  0  0  0  0  0  0  0  0  0  0
   25.1880  -21.3176    0.0000 O   0  0  0  0  0  0  0  0  0  0  0  0
   17.0289  -22.1798    0.0000 C   0  0  0  0  0  0  0  0  0  0  0  0
   17.0289  -23.5960    0.0000 C   0  0  0  0  0  0  0  0  0  0  0  0
   17.5880  -25.3541    0.0000 Br  0  0  0  0  0  0  0  0  0  0  0  0
   12.1100  -17.5700    0.0000 C   0  0  0  0  0  0  0  0  0  0  0  0
   13.3700  -16.8700    0.0000 C   0  0  0  0  0  0  0  0  0  0  0  0
   10.9200  -16.8700    0.0000 C   0  0  0  0  0  0  0  0  0  0  0  0
   14.5600  -17.5000    0.0000 N   0  0  0  0  0  0  0  0  0  0  0  0
   15.7500  -16.8700    0.0000 C   0  0  0  0  0  0  0  0  0  0  0  0
   15.8900  -15.4700    0.0000 C   0  0  0  0  0  0  0  0  0  0  0  0
   17.2200  -15.1200    0.0000 C   0  0  0  0  0  0  0  0  0  0  0  0
   17.9900  -16.3800    0.0000 C   0  0  0  0  0  0  0  0  0  0  0  0
   17.0100  -17.4300    0.0000 C   0  0  0  0  0  0  0  0  0  0  0  0
   17.9200  -13.9300    0.0000 C   0  0  0  0  0  0  0  0  0  0  0  0
   19.3900  -13.9300    0.0000 C   0  0  0  0  0  0  0  0  0  0  0  0
   20.0900  -15.1200    0.0000 C   0  0  0  0  0  0  0  0  0  0  0  0
   19.3900  -16.3800    0.0000 C   0  0  0  0  0  0  0  0  0  0  0  0
   21.4200  -15.1200    0.0000 C   0  0  0  0  0  0  0  0  0  0  0  0
   22.1200  -13.9300    0.0000 C   0  0  0  0  0  0  0  0  0  0  0  0
   20.0200  -12.8100    0.0000 C   0  0  0  0  0  0  0  0  0  0  0  0
   21.4200  -12.8100    0.0000 C   0  0  0  0  0  0  0  0  0  0  0  0
    9.8000  -17.5000    0.0000 C   0  0  0  0  0  0  0  0  0  0  0  0
    8.5400  -16.8000    0.0000 C   0  0  0  0  0  0  0  0  0  0  0  0
    8.5400  -15.4000    0.0000 C   0  0  0  0  0  0  0  0  0  0  0  0
    9.8000  -14.7000    0.0000 C   0  0  0  0  0  0  0  0  0  0  0  0
   10.9200  -15.4000    0.0000 C   0  0  0  0  0  0  0  0  0  0  0  0
    9.8000  -18.9000    0.0000 C   0  0  0  0  0  0  0  0  0  0  0  0
    8.5400  -19.6000    0.0000 C   0  0  0  0  0  0  0  0  0  0  0  0
    7.3500  -18.9000    0.0000 C   0  0  0  0  0  0  0  0  0  0  0  0
    7.3500  -17.5000    0.0000 N   0  0  0  0  0  0  0  0  0  0  0  0
    6.1600  -19.6000    0.0000 O   0  0  0  0  0  0  0  0  0  0  0  0
    7.3500  -14.7000    0.0000 O   0  0  0  0  0  0  0  0  0  0  0  0
   12.1100  -18.9700    0.0000 O   0  0  0  0  0  0  0  0  0  0  0  0
   23.7300  -16.5200    0.0000 C   0  0  0  0  0  0  0  0  0  0  0  0
   25.4800  -16.5200    0.0000 C   0  0  0  0  0  0  0  0  0  0  0  0
   23.0300  -17.7100    0.0000 C   0  0  0  0  0  0  0  0  0  0  0  0
   26.1800  -17.7100    0.0000 C   0  0  0  0  0  0  0  0  0  0  0  0
   27.5100  -17.7100    0.0000 O   0  0  0  0  0  0  0  0  0  0  0  0
   21.6300  -17.7100    0.0000 O   0  0  0  0  0  0  0  0  0  0  0  0
   23.7300  -18.9000    0.0000 O   0  0  0  0  0  0  0  0  0  0  0  0
   25.4800  -18.9000    0.0000 O   0  0  0  0  0  0  0  0  0  0  0  0
  1  2  1  0
  2  3  1  0
  2  4  2  0
  3  5  1  0
  5  6  1  0
  5  7  1  0
  6  8  1  0
  7  9  1  0
  8  9  1  0
  1 10  1  0
 10 11  1  0
 11 12  1  0
 12 13  1  0
 13 14  1  0
 10 14  1  0
  1 15  1  0
 15 16  2  0
 16 17  1  0
 17 18  2  0
 18 19  1  0
 19 20  2  0
 15 20  1  0
  1 21  1  0
  8 22  1  0
  8 23  1  0
 25 26  1  0
 25 27  1  0
 26 28  1  0
 28 29  1  0
 29 30  1  0
 30 31  1  0
 31 32  2  0
 32 33  1  0
 29 33  1  0
 31 34  1  0
 34 35  2  0
 35 36  1  0
 36 37  2  0
 32 37  1  0
 36 38  1  0
 38 39  1  0
 35 40  1  0
 40 41  1  0
 27 42  2  0
 42 43  1  0
 43 44  2  0
 44 45  1  0
 45 46  2  0
 27 46  1  0
 42 47  1  0
 47 48  2  0
 48 49  1  0
 49 50  1  0
 43 50  1  0
 49 51  2  0
 44 52  1  0
 25 53  1  6
 54 55  2  0
 54 56  1  0
 55 57  1  0
 57 58  2  0
 56 59  1  0
 56 60  2  0
 57 61  1  0
M  CHG  2   8   1  24  -1
M  END
