 
     RDKit          2D

156162  0  0  0  0  0  0  0  0999 V2000
   14.9181  -21.7880    0.0000 Na  0  0  0  0  0 15  0  0  0  0  0  0
   11.7600  -23.5900    0.0000 C   0  0  0  0  0  0  0  0  0  0  0  0
   11.7600  -24.9900    0.0000 C   0  0  0  0  0  0  0  0  0  0  0  0
   12.9724  -25.6900    0.0000 C   0  0  0  0  0  0  0  0  0  0  0  0
   14.1849  -24.9900    0.0000 C   0  0  0  0  0  0  0  0  0  0  0  0
   14.1849  -23.5900    0.0000 C   0  0  0  0  0  0  0  0  0  0  0  0
   12.9724  -22.8900    0.0000 C   0  0  0  0  0  0  0  0  0  0  0  0
   15.5164  -25.4226    0.0000 N   0  0  0  0  0  0  0  0  0  0  0  0
   16.3393  -24.2900    0.0000 C   0  0  0  0  0  0  0  0  0  0  0  0
   15.5164  -23.1574    0.0000 N   0  0  0  0  0  0  0  0  0  0  0  0
   17.7100  -24.2900    0.0000 S   0  0  0  0  0  0  0  0  0  0  0  0
   18.4100  -25.5024    0.0000 C   0  0  0  0  0  0  0  0  0  0  0  0
   18.4100  -23.0776    0.0000 O   0  0  0  0  0  0  0  0  0  0  0  0
   19.8098  -25.5024    0.0000 C   0  0  0  0  0  0  0  0  0  0  0  0
   20.5003  -26.6980    0.0000 C   0  0  0  0  0  0  0  0  0  0  0  0
   21.9003  -26.6978    0.0000 C   0  0  0  0  0  0  0  0  0  0  0  0
   22.6001  -25.4853    0.0000 C   0  0  0  0  0  0  0  0  0  0  0  0
   21.9097  -24.2898    0.0000 C   0  0  0  0  0  0  0  0  0  0  0  0
   20.5097  -24.2899    0.0000 N   0  0  0  0  0  0  0  0  0  0  0  0
   19.8149  -27.8852    0.0000 C   0  0  0  0  0  0  0  0  0  0  0  0
   22.5910  -27.8932    0.0000 O   0  0  0  0  0  0  0  0  0  0  0  0
   24.0096  -27.8932    0.0000 C   0  0  0  0  0  0  0  0  0  0  0  0
   24.6956  -29.0806    0.0000 C   0  0  0  0  0  0  0  0  0  0  0  0
   26.1097  -29.0806    0.0000 C   0  0  0  0  0  0  0  0  0  0  0  0
   26.7968  -30.2700    0.0000 O   0  0  0  0  0  0  0  0  0  0  0  0
   28.2097  -30.2699    0.0000 C   0  0  0  0  0  0  0  0  0  0  0  0
   16.8700  -17.6400    0.0000 C   0  0  0  0  0  0  0  0  0  0  0  0
   16.8700  -19.0400    0.0000 C   0  0  0  0  0  0  0  0  0  0  0  0
   18.0600  -19.7400    0.0000 C   0  0  0  0  0  0  0  0  0  0  0  0
   19.2500  -19.0400    0.0000 C   0  0  0  0  0  0  0  0  0  0  0  0
   19.2500  -17.6400    0.0000 C   0  0  0  0  0  0  0  0  0  0  0  0
   18.0600  -16.9400    0.0000 C   0  0  0  0  0  0  0  0  0  0  0  0
   20.5800  -19.4600    0.0000 N   0  0  0  0  0  0  0  0  0  0  0  0
   21.4200  -18.3400    0.0000 C   0  0  0  0  0  0  0  0  0  0  0  0
   20.5800  -17.2200    0.0000 N   0  0  0  0  0  0  0  0  0  0  0  0
   22.8200  -18.3400    0.0000 S   0  0  0  0  0  0  0  0  0  0  0  0
   23.5200  -19.6000    0.0000 C   0  0  0  0  0  0  0  0  0  0  0  0
   23.5200  -17.1500    0.0000 O   0  0  0  0  0  0  0  0  0  0  0  0
   24.9200  -19.6000    0.0000 C   0  0  0  0  0  0  0  0  0  0  0  0
   25.6200  -20.7900    0.0000 C   0  0  0  0  0  0  0  0  0  0  0  0
   27.0200  -20.7900    0.0000 C   0  0  0  0  0  0  0  0  0  0  0  0
   27.7200  -19.5300    0.0000 C   0  0  0  0  0  0  0  0  0  0  0  0
   27.0200  -18.3400    0.0000 C   0  0  0  0  0  0  0  0  0  0  0  0
   25.6200  -18.3400    0.0000 N   0  0  0  0  0  0  0  0  0  0  0  0
   24.9200  -21.9800    0.0000 C   0  0  0  0  0  0  0  0  0  0  0  0
   27.7200  -21.9800    0.0000 O   0  0  0  0  0  0  0  0  0  0  0  0
   29.1200  -21.9800    0.0000 C   0  0  0  0  0  0  0  0  0  0  0  0
   29.8200  -23.1700    0.0000 C   0  0  0  0  0  0  0  0  0  0  0  0
   31.2200  -23.1700    0.0000 C   0  0  0  0  0  0  0  0  0  0  0  0
   31.9200  -24.3600    0.0000 O   0  0  0  0  0  0  0  0  0  0  0  0
   33.3200  -24.3600    0.0000 C   0  0  0  0  0  0  0  0  0  0  0  0
   24.5313  -17.0264    0.0000 C   0  0  0  0  0  0  0  0  0  0  0  0
   24.5313  -18.4300    0.0000 C   0  0  0  0  0  0  0  0  0  0  0  0
   25.9349  -18.4300    0.0000 N   0  0  0  0  0  0  0  0  0  0  0  0
   25.9349  -17.0264    0.0000 C   0  0  0  0  0  0  0  0  0  0  0  0
   27.2683  -18.8510    0.0000 C   0  0  0  0  0  0  0  0  0  0  0  0
   28.1103  -17.7281    0.0000 C   0  0  0  0  0  0  0  0  0  0  0  0
   27.2683  -16.6053    0.0000 S   0  0  0  0  0  0  0  0  0  0  0  0
   29.0929  -18.7107    0.0000 C   0  0  0  0  0  0  0  0  0  0  0  0
   29.0929  -16.7456    0.0000 C   0  0  0  0  0  0  0  0  0  0  0  0
   27.7595  -20.1844    0.0000 C   0  0  0  0  0  0  0  0  0  0  0  0
   29.1630  -20.1844    0.0000 O   0  0  0  0  0  0  0  0  0  0  0  0
   26.9173  -21.3072    0.0000 O   0  0  0  0  0  0  0  0  0  0  0  0
   23.3383  -16.3246    0.0000 N   0  0  0  0  0  0  0  0  0  0  0  0
   22.1452  -17.0264    0.0000 C   0  0  0  0  0  0  0  0  0  0  0  0
   23.3383  -19.1317    0.0000 O   0  0  0  0  0  0  0  0  0  0  0  0
   22.1452  -18.4300    0.0000 O   0  0  0  0  0  0  0  0  0  0  0  0
   20.9268  -16.3295    0.0000 C   0  0  0  0  0  0  0  0  0  0  0  0
   19.7355  -17.0241    0.0000 C   0  0  0  0  0  0  0  0  0  0  0  0
   20.9268  -14.9295    0.0000 N   0  0  0  0  0  0  0  0  0  0  0  0
   18.5230  -16.3241    0.0000 C   0  0  0  0  0  0  0  0  0  0  0  0
   17.3106  -17.0241    0.0000 C   0  0  0  0  0  0  0  0  0  0  0  0
   17.3106  -18.4241    0.0000 C   0  0  0  0  0  0  0  0  0  0  0  0
   18.5230  -19.1241    0.0000 C   0  0  0  0  0  0  0  0  0  0  0  0
   19.7355  -18.4241    0.0000 C   0  0  0  0  0  0  0  0  0  0  0  0
   16.0891  -19.1295    0.0000 O   0  0  0  0  0  0  0  0  0  0  0  0
   34.0923  -18.2711    0.0000 O   0  0  0  0  0  0  0  0  0  0  0  0
   34.0923  -18.2711    0.0000 O   0  0  0  0  0  0  0  0  0  0  0  0
   34.0923  -18.2711    0.0000 O   0  0  0  0  0  0  0  0  0  0  0  0
   25.2700  -16.8000    0.0000 C   0  0  0  0  0  0  0  0  0  0  0  0
   25.2700  -18.2000    0.0000 C   0  0  0  0  0  0  0  0  0  0  0  0
   26.6700  -18.2000    0.0000 N   0  0  0  0  0  0  0  0  0  0  0  0
   26.6700  -16.8000    0.0000 C   0  0  0  0  0  0  0  0  0  0  0  0
   28.0000  -18.6200    0.0000 C   0  0  0  0  0  0  0  0  0  0  0  0
   28.8400  -17.5000    0.0000 C   0  0  0  0  0  0  0  0  0  0  0  0
   28.0000  -16.3800    0.0000 S   0  0  0  0  0  0  0  0  0  0  0  0
   29.8200  -18.4800    0.0000 C   0  0  0  0  0  0  0  0  0  0  0  0
   29.8200  -16.5200    0.0000 C   0  0  0  0  0  0  0  0  0  0  0  0
   28.4900  -20.0200    0.0000 C   0  0  0  0  0  0  0  0  0  0  0  0
   29.8900  -20.0200    0.0000 O   0  0  0  0  0  0  0  0  0  0  0  0
   27.6500  -21.1400    0.0000 O   0  0  0  0  0  0  0  0  0  0  0  0
   24.0800  -16.1000    0.0000 N   0  0  0  0  0  0  0  0  0  0  0  0
   22.8900  -16.8000    0.0000 C   0  0  0  0  0  0  0  0  0  0  0  0
   24.0800  -18.9000    0.0000 O   0  0  0  0  0  0  0  0  0  0  0  0
   22.8900  -18.2000    0.0000 O   0  0  0  0  0  0  0  0  0  0  0  0
   21.6300  -16.1000    0.0000 C   0  0  0  0  0  0  0  0  0  0  0  0
   20.4400  -16.8000    0.0000 C   0  0  0  0  0  0  0  0  0  0  0  0
   21.6300  -14.7000    0.0000 N   0  0  0  0  0  0  0  0  0  0  0  0
   19.2500  -16.1000    0.0000 C   0  0  0  0  0  0  0  0  0  0  0  0
   17.9900  -16.8000    0.0000 C   0  0  0  0  0  0  0  0  0  0  0  0
   17.9900  -18.2000    0.0000 C   0  0  0  0  0  0  0  0  0  0  0  0
   19.2500  -18.9000    0.0000 C   0  0  0  0  0  0  0  0  0  0  0  0
   20.4400  -18.2000    0.0000 C   0  0  0  0  0  0  0  0  0  0  0  0
   16.8000  -18.9000    0.0000 O   0  0  0  0  0  0  0  0  0  0  0  0
   24.1709  -17.2043    0.0000 C   0  0  0  0  0  0  0  0  0  0  0  0
   24.1709  -15.8400    0.0000 C   0  0  0  0  0  0  0  0  0  0  0  0
   22.9859  -17.8807    0.0000 C   0  0  0  0  0  0  0  0  0  0  0  0
   25.6666  -18.4812    0.0000 O   0  0  0  0  0  0  0  0  0  0  0  0
   22.9859  -15.1580    0.0000 C   0  0  0  0  0  0  0  0  0  0  0  0
   22.9859  -19.2450    0.0000 C   0  0  0  0  0  0  0  0  0  0  0  0
   21.9450  -16.9275    0.0000 C   0  0  0  0  0  0  0  0  0  0  0  0
   27.4458  -17.6943    0.0000 C   0  0  0  0  0  0  0  0  0  0  0  0
   22.9859  -13.7880    0.0000 C   0  0  0  0  0  0  0  0  0  0  0  0
   23.7258  -20.6034    0.0000 O   0  0  0  0  0  0  0  0  0  0  0  0
   21.8123  -19.9272    0.0000 C   0  0  0  0  0  0  0  0  0  0  0  0
   28.5906  -18.4120    0.0000 C   0  0  0  0  0  0  0  0  0  0  0  0
   27.4113  -16.3303    0.0000 O   0  0  0  0  0  0  0  0  0  0  0  0
   21.8123  -13.1116    0.0000 C   0  0  0  0  0  0  0  0  0  0  0  0
   24.1709  -13.1116    0.0000 C   0  0  0  0  0  0  0  0  0  0  0  0
   24.7548  -21.7190    0.0000 C   0  0  0  0  0  0  0  0  0  0  0  0
   20.6273  -19.2450    0.0000 C   0  0  0  0  0  0  0  0  0  0  0  0
   21.8123  -21.2912    0.0000 C   0  0  0  0  0  0  0  0  0  0  0  0
   29.7920  -17.7775    0.0000 C   0  0  0  0  0  0  0  0  0  0  0  0
   28.5500  -19.7801    0.0000 O   0  0  0  0  0  0  0  0  0  0  0  0
   28.6878  -15.6932    0.0000 C   0  0  0  0  0  0  0  0  0  0  0  0
   20.6273  -13.7880    0.0000 C   0  0  0  0  0  0  0  0  0  0  0  0
   21.8123  -11.7473    0.0000 O   0  0  0  0  0  0  0  0  0  0  0  0
   24.7548  -23.0776    0.0000 C   0  0  0  0  0  0  0  0  0  0  0  0
   25.9398  -21.0369    0.0000 O   0  0  0  0  0  0  0  0  0  0  0  0
   20.6273  -17.8807    0.0000 O   0  0  0  0  0  0  0  0  0  0  0  0
   19.5695  -20.1930    0.0000 O   0  0  0  0  0  0  0  0  0  0  0  0
   29.8379  -16.4196    0.0000 C   0  0  0  0  0  0  0  0  0  0  0  0
   28.7389  -14.3326    0.0000 C   0  0  0  0  0  0  0  0  0  0  0  0
   20.6273  -15.1580    0.0000 C   0  0  0  0  0  0  0  0  0  0  0  0
   19.4481  -13.1116    0.0000 C   0  0  0  0  0  0  0  0  0  0  0  0
   25.9398  -23.7654    0.0000 C   0  0  0  0  0  0  0  0  0  0  0  0
   27.1133  -21.7190    0.0000 C   0  0  0  0  0  0  0  0  0  0  0  0
   19.4481  -17.2043    0.0000 C   0  0  0  0  0  0  0  0  0  0  0  0
   19.4481  -15.8400    0.0000 C   0  0  0  0  0  0  0  0  0  0  0  0
   21.8123  -15.8400    0.0000 O   0  0  0  0  0  0  0  0  0  0  0  0
   27.1133  -23.0776    0.0000 C   0  0  0  0  0  0  0  0  0  0  0  0
   25.9398  -25.0892    0.0000 O   0  0  0  0  0  0  0  0  0  0  0  0
   28.2983  -21.0428    0.0000 C   0  0  0  0  0  0  0  0  0  0  0  0
   18.2688  -17.8807    0.0000 C   0  0  0  0  0  0  0  0  0  0  0  0
   18.1995  -16.4066    0.0000 C   0  0  0  0  0  0  0  0  0  0  0  0
   18.1995  -15.1522    0.0000 O   0  0  0  0  0  0  0  0  0  0  0  0
   28.2983  -23.7654    0.0000 O   0  0  0  0  0  0  0  0  0  0  0  0
   18.3035  -19.0021    0.0000 C   0  0  0  0  0  0  0  0  0  0  0  0
   25.3593  -16.5254    0.0000 C   0  0  0  0  0  0  0  0  0  0  0  0
   27.1615  -25.7951    0.0000 C   0  0  0  0  0  0  0  0  0  0  0  0
   24.7273  -24.4654    0.0000 C   0  0  0  0  0  0  0  0  0  0  0  0
   24.8709  -14.6276    0.0000 O   0  0  0  0  0  0  0  0  0  0  0  0
   26.2709  -14.6276    0.0000 C   0  0  0  0  0  0  0  0  0  0  0  0
   30.9997  -18.5339    0.0000 N   0  0  0  0  0  0  0  0  0  0  0  0
   32.2377  -17.8772    0.0000 C   0  0  0  0  0  0  0  0  0  0  0  0
   31.0187  -19.9487    0.0000 C   0  0  0  0  0  0  0  0  0  0  0  0
  2  3  2  0
  3  4  1  0
  4  5  2  0
  5  6  1  0
  6  7  2  0
  2  7  1  0
  5  8  1  0
  8  9  2  0
  9 10  1  0
  6 10  1  0
  9 11  1  0
 11 12  1  0
 11 13  2  0
 12 14  1  0
 14 15  2  0
 15 16  1  0
 16 17  2  0
 17 18  1  0
 18 19  2  0
 14 19  1  0
 15 20  1  0
 16 21  1  0
 21 22  1  0
 22 23  1  0
 23 24  1  0
 24 25  1  0
 25 26  1  0
 27 28  2  0
 28 29  1  0
 29 30  2  0
 30 31  1  0
 31 32  2  0
 27 32  1  0
 30 33  1  0
 33 34  2  0
 34 35  1  0
 31 35  1  0
 34 36  1  0
 36 37  1  0
 36 38  2  0
 37 39  1  0
 39 40  2  0
 40 41  1  0
 41 42  2  0
 42 43  1  0
 43 44  2  0
 39 44  1  0
 40 45  1  0
 41 46  1  0
 46 47  1  0
 47 48  1  0
 48 49  1  0
 49 50  1  0
 50 51  1  0
 52 53  1  0
 53 54  1  0
 54 55  1  0
 52 55  1  0
 54 56  1  0
 56 57  1  0
 57 58  1  0
 55 58  1  1
 57 59  1  0
 57 60  1  0
 56 61  1  6
 61 62  1  0
 61 63  2  0
 52 64  1  1
 64 65  1  0
 53 66  2  0
 65 67  2  0
 65 68  1  0
 68 69  1  0
 68 70  1  1
 69 71  2  0
 71 72  1  0
 72 73  2  0
 73 74  1  0
 74 75  2  0
 69 75  1  0
 73 76  1  0
 80 81  1  0
 81 82  1  0
 82 83  1  0
 80 83  1  0
 82 84  1  0
 84 85  1  0
 85 86  1  0
 83 86  1  1
 85 87  1  0
 85 88  1  0
 84 89  1  6
 89 90  1  0
 89 91  2  0
 80 92  1  1
 92 93  1  0
 81 94  2  0
 93 95  2  0
 93 96  1  0
 96 97  1  0
 96 98  1  1
 97 99  2  0
 99100  1  0
100101  2  0
101102  1  0
102103  2  0
 97103  1  0
101104  1  0
105106  1  0
105107  1  0
105108  1  6
106109  1  0
107110  1  0
107111  1  6
112108  1  6
109113  1  0
110114  1  6
110115  1  0
112116  1  0
112117  1  0
113118  1  0
113119  1  6
120114  1  6
115121  1  0
115122  1  1
116123  1  0
116124  1  1
117125  1  0
118126  1  0
118127  2  0
120128  1  0
120129  1  0
121130  1  0
121131  2  0
123132  1  0
125133  1  6
126134  1  0
126135  1  1
128136  1  0
129137  1  0
130138  1  0
134139  1  0
134140  1  1
136141  1  0
136142  1  0
137143  1  1
138144  1  6
139145  1  6
139146  1  0
141147  1  6
144148  1  0
125132  1  0
137141  1  0
138139  1  0
106149  1  6
142150  1  0
136151  1  1
106152  1  0
152153  1  0
123154  1  6
154155  1  0
154156  1  0
M  CHG  2   1   1  10  -1
M  END
