 
     RDKit          2D

 43 43  0  0  0  0  0  0  0  0999 V2000
   25.2991  -19.3605    0.0000 C   0  0  0  0  0  0  0  0  0  0  0  0
   24.0935  -18.6673    0.0000 N   0  0  0  0  0  0  0  0  0  0  0  0
   26.5163  -18.6673    0.0000 N   0  0  0  0  0  0  0  0  0  0  0  0
   25.2991  -20.7640    0.0000 N   0  0  0  0  0  0  0  0  0  0  0  0
   22.8764  -19.3605    0.0000 C   0  0  0  0  0  0  0  0  0  0  0  0
   27.7278  -19.3605    0.0000 C   0  0  0  0  0  0  0  0  0  0  0  0
   26.5163  -17.2579    0.0000 C   0  0  0  0  0  0  0  0  0  0  0  0
   21.6649  -18.6673    0.0000 N   0  0  0  0  0  0  0  0  0  0  0  0
   22.8764  -20.7640    0.0000 N   0  0  0  0  0  0  0  0  0  0  0  0
   31.1135  -18.2132    0.0000 Cl  0  0  0  0  0  0  0  0  0  0  0  0
   29.5484  -19.4440    0.0000 C   0  0  0  0  0  0  0  0  0  0  0  0
   29.5543  -20.8486    0.0000 C   0  0  0  0  0  0  0  0  0  0  0  0
   28.3361  -18.7446    0.0000 N   0  0  0  0  0  0  0  0  0  0  0  0
   30.7608  -18.7446    0.0000 C   0  0  0  0  0  0  0  0  0  0  0  0
   28.3478  -21.5481    0.0000 C   0  0  0  0  0  0  0  0  0  0  0  0
   30.7608  -21.5423    0.0000 C   0  0  0  0  0  0  0  0  0  0  0  0
   28.3361  -17.3457    0.0000 C   0  0  0  0  0  0  0  0  0  0  0  0
   27.1296  -19.4497    0.0000 C   0  0  0  0  0  0  0  0  0  0  0  0
   31.9790  -19.4440    0.0000 C   0  0  0  0  0  0  0  0  0  0  0  0
   27.1296  -20.8486    0.0000 N   0  0  0  0  0  0  0  0  0  0  0  0
   28.3478  -22.9469    0.0000 C   0  0  0  0  0  0  0  0  0  0  0  0
   31.9790  -20.8486    0.0000 C   0  0  0  0  0  0  0  0  0  0  0  0
   27.1238  -16.6520    0.0000 C   0  0  0  0  0  0  0  0  0  0  0  0
   25.9114  -18.7503    0.0000 C   0  0  0  0  0  0  0  0  0  0  0  0
   25.9173  -21.5481    0.0000 C   0  0  0  0  0  0  0  0  0  0  0  0
   29.5543  -23.6521    0.0000 C   0  0  0  0  0  0  0  0  0  0  0  0
   25.9114  -17.3514    0.0000 C   0  0  0  0  0  0  0  0  0  0  0  0
   24.7049  -20.8486    0.0000 C   0  0  0  0  0  0  0  0  0  0  0  0
   25.9173  -22.9469    0.0000 O   0  0  0  0  0  0  0  0  0  0  0  0
   29.5543  -25.0569    0.0000 C   0  0  0  0  0  0  0  0  0  0  0  0
   30.7666  -22.9469    0.0000 C   0  0  0  0  0  0  0  0  0  0  0  0
   23.4867  -21.5481    0.0000 C   0  0  0  0  0  0  0  0  0  0  0  0
   22.2744  -20.8486    0.0000 C   0  0  0  0  0  0  0  0  0  0  0  0
   23.4867  -22.9469    0.0000 C   0  0  0  0  0  0  0  0  0  0  0  0
   21.0679  -21.5538    0.0000 C   0  0  0  0  0  0  0  0  0  0  0  0
   22.2744  -23.6521    0.0000 C   0  0  0  0  0  0  0  0  0  0  0  0
   21.0562  -22.9469    0.0000 C   0  0  0  0  0  0  0  0  0  0  0  0
   19.8556  -20.8603    0.0000 O   0  0  0  0  0  0  0  0  0  0  0  0
   19.8497  -23.6521    0.0000 C   0  0  0  0  0  0  0  0  0  0  0  0
   18.6432  -21.5538    0.0000 C   0  0  0  0  0  0  0  0  0  0  0  0
   18.6375  -22.9410    0.0000 O   0  0  0  0  0  0  0  0  0  0  0  0
   19.9140  -25.0510    0.0000 O   0  0  0  0  0  0  0  0  0  0  0  0
   17.4309  -20.8603    0.0000 C   0  0  0  0  0  0  0  0  0  0  0  0
  1  2  1  0
  1  3  1  0
  1  4  2  0
  2  5  1  0
  3  6  1  0
  3  7  1  0
  5  8  1  0
  5  9  2  0
 11 12  1  0
 11 13  1  0
 11 14  2  0
 12 15  1  0
 12 16  2  0
 13 17  1  0
 13 18  1  0
 14 19  1  0
 15 20  1  0
 15 21  1  6
 16 22  1  0
 17 23  1  0
 18 24  1  0
 20 25  1  0
 21 26  1  0
 23 27  1  0
 25 28  1  0
 25 29  2  0
 26 30  1  0
 26 31  1  0
 28 32  1  0
 32 33  2  0
 32 34  1  0
 33 35  1  0
 34 36  2  0
 35 37  2  0
 35 38  1  0
 37 39  1  0
 38 40  1  0
 39 41  1  0
 39 42  2  0
 40 43  1  0
 19 22  2  0
 24 27  1  0
 36 37  1  0
M  END
