 
     RDKit          2D

 49 55  0  0  1  0  0  0  0  0999 V2000
   27.4218  -18.5468    0.0000 C   0  0  0  0  0  0  0  0  0  0  0  0
   27.4278  -17.1810    0.0000 C   0  0  0  0  0  0  0  0  0  0  0  0
   26.2398  -19.2328    0.0000 C   0  0  0  0  0  0  0  0  0  0  0  0
   29.7858  -18.5529    0.0000 C   0  0  0  0  0  0  0  0  0  0  0  0
   28.6098  -16.4950    0.0000 C   0  0  0  0  0  0  0  0  0  0  0  0
   26.2335  -16.5012    0.0000 C   0  0  0  0  0  0  0  0  0  0  0  0
   27.3788  -15.6682    0.0000 C   0  0  0  0  0  0  0  0  0  0  0  0
   25.0638  -18.5591    0.0000 C   0  0  0  0  0  0  0  0  0  0  0  0
   26.2523  -20.5924    0.0000 C   0  0  0  0  0  0  0  0  0  0  0  0
   29.7920  -17.1872    0.0000 C   0  0  0  0  0  0  0  0  0  0  0  0
   29.7552  -15.8214    0.0000 C   0  0  0  0  0  0  0  0  0  0  0  0
   28.6038  -14.8185    0.0000 O   0  0  0  0  0  0  0  0  0  0  0  0
   25.0512  -17.1932    0.0000 C   0  0  0  0  0  0  0  0  0  0  0  0
   23.8941  -19.2390    0.0000 C   0  0  0  0  0  0  0  0  0  0  0  0
   25.0761  -21.2661    0.0000 C   0  0  0  0  0  0  0  0  0  0  0  0
   30.9005  -15.1416    0.0000 C   0  0  0  0  0  0  0  0  0  0  0  0
   23.8941  -20.5862    0.0000 C   0  0  0  0  0  0  0  0  0  0  0  0
   22.7304  -18.5774    0.0000 C   0  0  0  0  0  0  0  0  0  0  0  0
   22.7304  -21.2661    0.0000 C   0  0  0  0  0  0  0  0  0  0  0  0
   21.5729  -19.2390    0.0000 C   0  0  0  0  0  0  0  0  0  0  0  0
   21.5729  -20.5862    0.0000 C   0  0  0  0  0  0  0  0  0  0  0  0
   20.4153  -21.2478    0.0000 N   0  0  0  0  0  0  0  0  0  0  0  0
   19.2429  -20.5641    0.0000 O   0  0  0  0  0  0  0  0  0  0  0  0
   26.1334  -15.0022    0.0000 C   0  0  0  0  0  0  0  0  0  0  0  0
   28.6038  -13.4176    0.0000 C   0  0  0  0  0  0  0  0  0  0  0  0
   29.7850  -12.7359    0.0000 C   0  0  0  0  0  0  0  0  0  0  0  0
   27.3856  -12.7138    0.0000 O   0  0  0  0  0  0  0  0  0  0  0  0
   20.4641  -16.5790    0.0000 C   0  0  0  0  0  0  0  0  0  0  0  0
   20.4525  -15.2599    0.0000 C   0  0  0  0  0  0  0  0  0  0  0  0
   19.3184  -17.2675    0.0000 C   0  0  0  0  0  0  0  0  0  0  0  0
   22.7610  -16.5558    0.0000 C   0  0  0  0  0  0  0  0  0  0  0  0
   21.5923  -14.5829    0.0000 C   0  0  0  0  0  0  0  0  0  0  0  0
   19.2897  -14.6060    0.0000 C   0  0  0  0  0  0  0  0  0  0  0  0
   20.4069  -13.9233    0.0000 C   0  0  0  0  0  0  0  0  0  0  0  0
   18.1671  -16.6137    0.0000 C   0  0  0  0  0  0  0  0  0  0  0  0
   19.3474  -18.5982    0.0000 C   0  0  0  0  0  0  0  0  0  0  0  0
   22.7435  -15.2310    0.0000 C   0  0  0  0  0  0  0  0  0  0  0  0
   22.6337  -13.9233    0.0000 C   0  0  0  0  0  0  0  0  0  0  0  0
   18.2198  -15.2887    0.0000 C   0  0  0  0  0  0  0  0  0  0  0  0
   17.0216  -17.3022    0.0000 C   0  0  0  0  0  0  0  0  0  0  0  0
   18.2020  -19.2926    0.0000 C   0  0  0  0  0  0  0  0  0  0  0  0
   23.6808  -13.2580    0.0000 C   0  0  0  0  0  0  0  0  0  0  0  0
   17.0390  -18.6328    0.0000 C   0  0  0  0  0  0  0  0  0  0  0  0
   15.8414  -16.6542    0.0000 C   0  0  0  0  0  0  0  0  0  0  0  0
   15.8992  -19.3387    0.0000 C   0  0  0  0  0  0  0  0  0  0  0  0
   14.6901  -17.3484    0.0000 C   0  0  0  0  0  0  0  0  0  0  0  0
   14.7190  -18.6967    0.0000 C   0  0  0  0  0  0  0  0  0  0  0  0
   13.5735  -19.3908    0.0000 O   0  0  0  0  0  0  0  0  0  0  0  0
   21.5923  -12.9182    0.0000 O   0  0  0  0  0  0  0  0  0  0  0  0
  1  2  1  0
  1  3  1  0
  1  4  1  1
  2  5  1  0
  2  6  1  0
  2  7  1  1
  3  8  1  0
  3  9  1  6
  4 10  1  0
  5 11  1  6
  5 12  1  0
  6 13  1  0
  8 14  1  0
  9 15  1  0
 11 16  3  0
 14 17  1  0
 14 18  1  6
 17 19  2  0
 18 20  1  0
 19 21  1  0
 21 22  2  0
  5 10  1  0
  8 13  1  1
 15 17  1  0
 20 21  1  0
 22 23  1  0
  7 24  1  0
 12 25  1  0
 25 26  1  0
 25 27  2  0
 28 29  1  0
 28 30  1  0
 28 31  1  1
 29 32  1  0
 29 33  1  0
 29 34  1  1
 30 35  1  0
 30 36  1  6
 31 37  1  0
 32 38  1  0
 33 39  1  0
 35 40  1  0
 36 41  1  0
 38 42  3  0
 40 43  2  0
 40 44  1  0
 43 45  1  0
 44 46  2  0
 45 47  2  0
 47 48  1  0
 32 37  1  0
 35 39  1  1
 41 43  1  0
 46 47  1  0
 32 49  1  1
M  END
