 
     RDKit          2D

438463  0  0  0  0  0  0  0  0999 V2000
   16.1000  -14.9800    0.0000 C   0  0  0  0  0  0  0  0  0  0  0  0
   16.1000  -13.5800    0.0000 C   0  0  0  0  0  0  0  0  0  0  0  0
   17.2900  -12.8800    0.0000 C   0  0  0  0  0  0  0  0  0  0  0  0
   18.5500  -13.5800    0.0000 C   0  0  0  0  0  0  0  0  0  0  0  0
   18.5500  -14.9800    0.0000 C   0  0  0  0  0  0  0  0  0  0  0  0
   17.2900  -15.6800    0.0000 C   0  0  0  0  0  0  0  0  0  0  0  0
   19.7400  -12.8800    0.0000 C   0  0  0  0  0  0  0  0  0  0  0  0
   20.9300  -13.5800    0.0000 C   0  0  0  0  0  0  0  0  0  0  0  0
   20.9300  -14.9800    0.0000 C   0  0  0  0  0  0  0  0  0  0  0  0
   19.7400  -15.6800    0.0000 C   0  0  0  0  0  0  0  0  0  0  0  0
   22.1200  -15.6800    0.0000 C   0  0  0  0  0  0  0  0  0  0  0  0
   23.3100  -14.9800    0.0000 C   0  0  0  0  0  0  0  0  0  0  0  0
   24.5700  -15.6800    0.0000 C   0  0  0  0  0  0  0  0  0  0  0  0
   24.5700  -17.0800    0.0000 C   0  0  0  0  0  0  0  0  0  0  0  0
   23.3800  -17.7800    0.0000 C   0  0  0  0  0  0  0  0  0  0  0  0
   22.1200  -17.0800    0.0000 C   0  0  0  0  0  0  0  0  0  0  0  0
   20.9300  -17.7800    0.0000 O   0  0  0  0  0  0  0  0  0  0  0  0
   19.7400  -17.0800    0.0000 C   0  0  0  0  0  0  0  0  0  0  0  0
   23.3800  -19.1800    0.0000 C   0  0  0  0  0  0  0  0  0  0  0  0
   23.3800  -20.5800    0.0000 C   0  0  0  0  0  0  0  0  0  0  0  0
   24.7800  -19.1800    0.0000 C   0  0  0  0  0  0  0  0  0  0  0  0
   21.9800  -19.1800    0.0000 C   0  0  0  0  0  0  0  0  0  0  0  0
   25.7600  -14.9800    0.0000 N   0  0  0  0  0  0  0  0  0  0  0  0
   25.7600  -13.5800    0.0000 C   0  0  0  0  0  0  0  0  0  0  0  0
   27.0200  -12.8800    0.0000 C   0  0  0  0  0  0  0  0  0  0  0  0
   28.2100  -13.5800    0.0000 C   0  0  0  0  0  0  0  0  0  0  0  0
   28.2100  -14.9800    0.0000 N   0  0  0  0  0  0  0  0  0  0  0  0
   27.0200  -15.6800    0.0000 C   0  0  0  0  0  0  0  0  0  0  0  0
   29.4700  -12.8800    0.0000 O   0  0  0  0  0  0  0  0  0  0  0  0
   27.0200  -17.0800    0.0000 O   0  0  0  0  0  0  0  0  0  0  0  0
   14.9100  -12.8800    0.0000 N   0  0  0  0  0  0  0  0  0  0  0  0
   13.7200  -13.5800    0.0000 S   0  0  0  0  0  0  0  0  0  0  0  0
   12.5300  -12.8800    0.0000 C   0  0  0  0  0  0  0  0  0  0  0  0
   13.0200  -14.8400    0.0000 O   0  0  0  0  0  0  0  0  0  0  0  0
   14.4200  -14.8400    0.0000 O   0  0  0  0  0  0  0  0  0  0  0  0
   29.4700  -19.4600    0.0000 Na  0  0  0  0  0 15  0  0  0  0  0  0
   30.5200  -21.0700    0.0000 O   0  0  0  0  0  0  0  0  0  0  0  0
    9.7300  -13.9300    0.0000 C   0  0  0  0  0  0  0  0  0  0  0  0
    9.7300  -12.5300    0.0000 C   0  0  0  0  0  0  0  0  0  0  0  0
   10.9200  -11.8300    0.0000 C   0  0  0  0  0  0  0  0  0  0  0  0
   12.1800  -12.5300    0.0000 C   0  0  0  0  0  0  0  0  0  0  0  0
   12.1800  -13.9300    0.0000 C   0  0  0  0  0  0  0  0  0  0  0  0
   10.9200  -14.6300    0.0000 C   0  0  0  0  0  0  0  0  0  0  0  0
   13.3700  -11.8300    0.0000 C   0  0  0  0  0  0  0  0  0  0  0  0
   14.5600  -12.5300    0.0000 C   0  0  0  0  0  0  0  0  0  0  0  0
   14.5600  -13.9300    0.0000 C   0  0  0  0  0  0  0  0  0  0  0  0
   13.3700  -14.6300    0.0000 C   0  0  0  0  0  0  0  0  0  0  0  0
   15.7500  -14.6300    0.0000 C   0  0  0  0  0  0  0  0  0  0  0  0
   16.9400  -13.9300    0.0000 C   0  0  0  0  0  0  0  0  0  0  0  0
   18.2000  -14.6300    0.0000 C   0  0  0  0  0  0  0  0  0  0  0  0
   18.2000  -16.0300    0.0000 C   0  0  0  0  0  0  0  0  0  0  0  0
   17.0100  -16.7300    0.0000 C   0  0  0  0  0  0  0  0  0  0  0  0
   15.7500  -16.0300    0.0000 C   0  0  0  0  0  0  0  0  0  0  0  0
   14.5600  -16.7300    0.0000 O   0  0  0  0  0  0  0  0  0  0  0  0
   13.3700  -16.0300    0.0000 C   0  0  0  0  0  0  0  0  0  0  0  0
   17.0100  -18.1300    0.0000 C   0  0  0  0  0  0  0  0  0  0  0  0
   17.0100  -19.5300    0.0000 C   0  0  0  0  0  0  0  0  0  0  0  0
   18.4100  -18.1300    0.0000 C   0  0  0  0  0  0  0  0  0  0  0  0
   15.6100  -18.1300    0.0000 C   0  0  0  0  0  0  0  0  0  0  0  0
   19.3900  -13.9300    0.0000 N   0  0  0  0  0  0  0  0  0  0  0  0
   19.3900  -12.5300    0.0000 C   0  0  0  0  0  0  0  0  0  0  0  0
   20.6500  -11.8300    0.0000 C   0  0  0  0  0  0  0  0  0  0  0  0
   21.8400  -12.5300    0.0000 C   0  0  0  0  0  0  0  0  0  0  0  0
   21.8400  -13.9300    0.0000 N   0  0  0  0  0  0  0  0  0  0  0  0
   20.6500  -14.6300    0.0000 C   0  0  0  0  0  0  0  0  0  0  0  0
   23.0300  -11.8300    0.0000 O   0  0  0  0  0  0  0  0  0  0  0  0
   20.6500  -16.0300    0.0000 O   0  0  0  0  0  0  0  0  0  0  0  0
    8.5400  -11.8300    0.0000 N   0  0  0  0  0  0  0  0  0  0  0  0
    7.3500  -12.5300    0.0000 S   0  0  0  0  0  0  0  0  0  0  0  0
    6.1319  -11.8399    0.0000 C   0  0  0  0  0  0  0  0  0  0  0  0
    6.6500  -13.7424    0.0000 O   0  0  0  0  0  0  0  0  0  0  0  0
    8.0500  -13.7424    0.0000 O   0  0  0  0  0  0  0  0  0  0  0  0
   19.7400  -14.4900    0.0000 C   0  0  0  0  0  0  0  0  0  0  0  0
   19.7400  -15.8900    0.0000 C   0  0  0  0  0  0  0  0  0  0  0  0
   20.9300  -16.5900    0.0000 C   0  0  0  0  0  0  0  0  0  0  0  0
   22.1900  -15.8900    0.0000 C   0  0  0  0  0  0  0  0  0  0  0  0
   22.1900  -14.4900    0.0000 C   0  0  0  0  0  0  0  0  0  0  0  0
   20.9300  -13.8600    0.0000 C   0  0  0  0  0  0  0  0  0  0  0  0
   20.9300  -17.9900    0.0000 N   0  0  0  0  0  0  0  0  0  0  0  0
   20.9300  -12.4600    0.0000 C   0  0  0  0  0  0  0  0  0  0  0  0
   20.9300  -11.0600    0.0000 C   0  0  0  0  0  0  0  0  0  0  0  0
   19.5300  -12.4600    0.0000 C   0  0  0  0  0  0  0  0  0  0  0  0
   22.3300  -12.4600    0.0000 C   0  0  0  0  0  0  0  0  0  0  0  0
   19.8100  -18.8300    0.0000 C   0  0  0  0  0  0  0  0  0  0  0  0
   20.2300  -20.1600    0.0000 C   0  0  0  0  0  0  0  0  0  0  0  0
   21.6300  -20.1600    0.0000 C   0  0  0  0  0  0  0  0  0  0  0  0
   22.1200  -18.8300    0.0000 C   0  0  0  0  0  0  0  0  0  0  0  0
   23.3100  -16.7300    0.0000 C   0  0  0  0  0  0  0  0  0  0  0  0
   23.3100  -18.1300    0.0000 C   0  0  0  0  0  0  0  0  0  0  0  0
   24.5000  -18.8300    0.0000 C   0  0  0  0  0  0  0  0  0  0  0  0
   25.7600  -18.1300    0.0000 C   0  0  0  0  0  0  0  0  0  0  0  0
   25.7600  -16.7300    0.0000 C   0  0  0  0  0  0  0  0  0  0  0  0
   24.5000  -16.0300    0.0000 C   0  0  0  0  0  0  0  0  0  0  0  0
   16.2400  -16.7300    0.0000 C   0  0  0  0  0  0  0  0  0  0  0  0
   16.2400  -18.1300    0.0000 C   0  0  0  0  0  0  0  0  0  0  0  0
   17.4300  -18.8300    0.0000 C   0  0  0  0  0  0  0  0  0  0  0  0
   18.6900  -18.1300    0.0000 C   0  0  0  0  0  0  0  0  0  0  0  0
   18.6900  -16.7300    0.0000 C   0  0  0  0  0  0  0  0  0  0  0  0
   17.4300  -16.0300    0.0000 C   0  0  0  0  0  0  0  0  0  0  0  0
   15.0500  -16.0300    0.0000 N   0  0  0  0  0  0  0  0  0  0  0  0
   13.8600  -16.7300    0.0000 C   0  0  0  0  0  0  0  0  0  0  0  0
   12.6700  -16.0300    0.0000 C   0  0  0  0  0  0  0  0  0  0  0  0
   13.8600  -18.1300    0.0000 O   0  0  0  0  0  0  0  0  0  0  0  0
   11.4800  -16.8700    0.0000 N   0  0  0  0  0  0  0  0  0  0  0  0
   10.3600  -16.0300    0.0000 C   0  0  0  0  0  0  0  0  0  0  0  0
   10.7800  -14.7000    0.0000 C   0  0  0  0  0  0  0  0  0  0  0  0
   12.1800  -14.7000    0.0000 C   0  0  0  0  0  0  0  0  0  0  0  0
   11.4800  -18.2700    0.0000 C   0  0  0  0  0  0  0  0  0  0  0  0
   10.2200  -18.9700    0.0000 C   0  0  0  0  0  0  0  0  0  0  0  0
   12.6700  -18.9700    0.0000 O   0  0  0  0  0  0  0  0  0  0  0  0
    9.0300  -18.2000    0.0000 C   0  0  0  0  0  0  0  0  0  0  0  0
    7.8400  -18.9000    0.0000 C   0  0  0  0  0  0  0  0  0  0  0  0
    9.0300  -16.8000    0.0000 C   0  0  0  0  0  0  0  0  0  0  0  0
   10.2200  -20.3700    0.0000 N   0  0  0  0  0  0  0  0  0  0  0  0
    9.0300  -21.0700    0.0000 C   0  0  0  0  0  0  0  0  0  0  0  0
    7.8400  -20.3700    0.0000 O   0  0  0  0  0  0  0  0  0  0  0  0
    6.5800  -21.0700    0.0000 C   0  0  0  0  0  0  0  0  0  0  0  0
    9.0300  -22.4700    0.0000 O   0  0  0  0  0  0  0  0  0  0  0  0
   26.9500  -16.0300    0.0000 N   0  0  0  0  0  0  0  0  0  0  0  0
   28.1400  -16.7300    0.0000 C   0  0  0  0  0  0  0  0  0  0  0  0
   29.3300  -16.0300    0.0000 C   0  0  0  0  0  0  0  0  0  0  0  0
   28.1400  -18.1300    0.0000 O   0  0  0  0  0  0  0  0  0  0  0  0
   30.5200  -16.8700    0.0000 N   0  0  0  0  0  0  0  0  0  0  0  0
   31.6400  -16.0300    0.0000 C   0  0  0  0  0  0  0  0  0  0  0  0
   31.2200  -14.7000    0.0000 C   0  0  0  0  0  0  0  0  0  0  0  0
   29.8200  -14.7000    0.0000 C   0  0  0  0  0  0  0  0  0  0  0  0
   30.5200  -18.2700    0.0000 C   0  0  0  0  0  0  0  0  0  0  0  0
   31.7800  -18.9700    0.0000 C   0  0  0  0  0  0  0  0  0  0  0  0
   29.3300  -18.9700    0.0000 O   0  0  0  0  0  0  0  0  0  0  0  0
   32.9700  -18.2000    0.0000 C   0  0  0  0  0  0  0  0  0  0  0  0
   34.1600  -18.9000    0.0000 C   0  0  0  0  0  0  0  0  0  0  0  0
   32.9700  -16.8000    0.0000 C   0  0  0  0  0  0  0  0  0  0  0  0
   31.7800  -20.3700    0.0000 N   0  0  0  0  0  0  0  0  0  0  0  0
   32.9700  -21.0700    0.0000 C   0  0  0  0  0  0  0  0  0  0  0  0
   34.1600  -20.3700    0.0000 O   0  0  0  0  0  0  0  0  0  0  0  0
   35.4200  -21.0700    0.0000 C   0  0  0  0  0  0  0  0  0  0  0  0
   32.9700  -22.4700    0.0000 O   0  0  0  0  0  0  0  0  0  0  0  0
   42.6300  -17.4300    0.0000 O   0  0  0  0  0  0  0  0  0  0  0  0
   19.7400  -14.4900    0.0000 C   0  0  0  0  0  0  0  0  0  0  0  0
   19.7400  -15.8900    0.0000 C   0  0  0  0  0  0  0  0  0  0  0  0
   20.9300  -16.5900    0.0000 C   0  0  0  0  0  0  0  0  0  0  0  0
   22.1900  -15.8900    0.0000 C   0  0  0  0  0  0  0  0  0  0  0  0
   22.1900  -14.4900    0.0000 C   0  0  0  0  0  0  0  0  0  0  0  0
   20.9300  -13.8600    0.0000 C   0  0  0  0  0  0  0  0  0  0  0  0
   20.9300  -12.4600    0.0000 C   0  0  0  0  0  0  0  0  0  0  0  0
   20.9300  -11.0600    0.0000 C   0  0  0  0  0  0  0  0  0  0  0  0
   19.5300  -12.4600    0.0000 C   0  0  0  0  0  0  0  0  0  0  0  0
   22.3300  -12.4600    0.0000 C   0  0  0  0  0  0  0  0  0  0  0  0
   20.9300  -17.9900    0.0000 N   0  0  0  0  0  0  0  0  0  0  0  0
   19.8100  -18.8300    0.0000 C   0  0  0  0  0  0  0  0  0  0  0  0
   20.2300  -20.1600    0.0000 C   0  0  0  0  0  0  0  0  0  0  0  0
   21.6300  -20.1600    0.0000 C   0  0  0  0  0  0  0  0  0  0  0  0
   22.1200  -18.8300    0.0000 C   0  0  0  0  0  0  0  0  0  0  0  0
   23.3100  -18.1300    0.0000 C   0  0  0  0  0  0  0  0  0  0  0  0
   23.3100  -16.7300    0.0000 C   0  0  0  0  0  0  0  0  0  0  0  0
   24.5000  -16.0300    0.0000 C   0  0  0  0  0  0  0  0  0  0  0  0
   25.7600  -16.7300    0.0000 C   0  0  0  0  0  0  0  0  0  0  0  0
   25.7600  -18.1300    0.0000 C   0  0  0  0  0  0  0  0  0  0  0  0
   24.5000  -18.8300    0.0000 C   0  0  0  0  0  0  0  0  0  0  0  0
   26.9500  -16.0300    0.0000 N   0  0  0  0  0  0  0  0  0  0  0  0
   28.1400  -16.7300    0.0000 C   0  0  0  0  0  0  0  0  0  0  0  0
   29.3300  -16.0300    0.0000 C   0  0  0  0  0  0  0  0  0  0  0  0
   29.8200  -14.7000    0.0000 C   0  0  0  0  0  0  0  0  0  0  0  0
   31.2200  -14.7000    0.0000 C   0  0  0  0  0  0  0  0  0  0  0  0
   31.6400  -16.0300    0.0000 C   0  0  0  0  0  0  0  0  0  0  0  0
   30.5200  -16.8700    0.0000 N   0  0  0  0  0  0  0  0  0  0  0  0
   30.5200  -18.2700    0.0000 C   0  0  0  0  0  0  0  0  0  0  0  0
   31.7800  -18.9700    0.0000 C   0  0  0  0  0  0  0  0  0  0  0  0
   32.9700  -18.2000    0.0000 C   0  0  0  0  0  0  0  0  0  0  0  0
   34.1600  -18.9000    0.0000 C   0  0  0  0  0  0  0  0  0  0  0  0
   32.9700  -16.8000    0.0000 C   0  0  0  0  0  0  0  0  0  0  0  0
   31.7800  -20.3700    0.0000 N   0  0  0  0  0  0  0  0  0  0  0  0
   32.9700  -21.0700    0.0000 C   0  0  0  0  0  0  0  0  0  0  0  0
   34.1600  -20.3700    0.0000 O   0  0  0  0  0  0  0  0  0  0  0  0
   35.4200  -21.0700    0.0000 C   0  0  0  0  0  0  0  0  0  0  0  0
   32.9700  -22.4700    0.0000 O   0  0  0  0  0  0  0  0  0  0  0  0
   29.3300  -18.9700    0.0000 O   0  0  0  0  0  0  0  0  0  0  0  0
   28.1400  -18.1300    0.0000 O   0  0  0  0  0  0  0  0  0  0  0  0
   18.6900  -18.1300    0.0000 C   0  0  0  0  0  0  0  0  0  0  0  0
   17.4300  -18.8300    0.0000 C   0  0  0  0  0  0  0  0  0  0  0  0
   16.2400  -18.1300    0.0000 C   0  0  0  0  0  0  0  0  0  0  0  0
   16.2400  -16.7300    0.0000 C   0  0  0  0  0  0  0  0  0  0  0  0
   17.4300  -16.0300    0.0000 C   0  0  0  0  0  0  0  0  0  0  0  0
   18.6900  -16.7300    0.0000 C   0  0  0  0  0  0  0  0  0  0  0  0
   15.0500  -16.0300    0.0000 N   0  0  0  0  0  0  0  0  0  0  0  0
   13.8600  -16.7300    0.0000 C   0  0  0  0  0  0  0  0  0  0  0  0
   12.6700  -16.0300    0.0000 C   0  0  0  0  0  0  0  0  0  0  0  0
   12.1800  -14.7000    0.0000 C   0  0  0  0  0  0  0  0  0  0  0  0
   10.7800  -14.7000    0.0000 C   0  0  0  0  0  0  0  0  0  0  0  0
   10.3600  -16.0300    0.0000 C   0  0  0  0  0  0  0  0  0  0  0  0
   11.4800  -16.8700    0.0000 N   0  0  0  0  0  0  0  0  0  0  0  0
   11.4800  -18.2700    0.0000 C   0  0  0  0  0  0  0  0  0  0  0  0
   10.2200  -18.9700    0.0000 C   0  0  0  0  0  0  0  0  0  0  0  0
    9.0300  -18.2000    0.0000 C   0  0  0  0  0  0  0  0  0  0  0  0
    7.8400  -18.9000    0.0000 C   0  0  0  0  0  0  0  0  0  0  0  0
    9.0300  -16.8000    0.0000 C   0  0  0  0  0  0  0  0  0  0  0  0
   10.2200  -20.3700    0.0000 N   0  0  0  0  0  0  0  0  0  0  0  0
    9.0300  -21.0700    0.0000 C   0  0  0  0  0  0  0  0  0  0  0  0
    7.8400  -20.3700    0.0000 O   0  0  0  0  0  0  0  0  0  0  0  0
    6.5800  -21.0700    0.0000 C   0  0  0  0  0  0  0  0  0  0  0  0
    9.0300  -22.4700    0.0000 O   0  0  0  0  0  0  0  0  0  0  0  0
   12.6700  -18.9700    0.0000 O   0  0  0  0  0  0  0  0  0  0  0  0
   13.8600  -18.1300    0.0000 O   0  0  0  0  0  0  0  0  0  0  0  0
   42.6300  -17.4300    0.0000 O   0  0  0  0  0  0  0  0  0  0  0  0
   42.6300  -17.4300    0.0000 O   0  0  0  0  0  0  0  0  0  0  0  0
   42.6300  -17.4300    0.0000 O   0  0  0  0  0  0  0  0  0  0  0  0
   42.6300  -17.4300    0.0000 O   0  0  0  0  0  0  0  0  0  0  0  0
   42.6300  -17.4300    0.0000 O   0  0  0  0  0  0  0  0  0  0  0  0
   42.6300  -17.4300    0.0000 O   0  0  0  0  0  0  0  0  0  0  0  0
   42.6300  -17.4300    0.0000 O   0  0  0  0  0  0  0  0  0  0  0  0
   42.6300  -17.4300    0.0000 O   0  0  0  0  0  0  0  0  0  0  0  0
   17.3924  -13.9642    0.0000 C   0  0  0  0  0  0  0  0  0  0  0  0
   17.3924  -15.3609    0.0000 C   0  0  0  0  0  0  0  0  0  0  0  0
   18.5796  -16.0593    0.0000 C   0  0  0  0  0  0  0  0  0  0  0  0
   19.8367  -15.3609    0.0000 C   0  0  0  0  0  0  0  0  0  0  0  0
   19.8367  -13.9642    0.0000 C   0  0  0  0  0  0  0  0  0  0  0  0
   18.5796  -13.2658    0.0000 C   0  0  0  0  0  0  0  0  0  0  0  0
   18.5796  -17.4560    0.0000 N   0  0  0  0  0  0  0  0  0  0  0  0
   18.5796  -11.8691    0.0000 C   0  0  0  0  0  0  0  0  0  0  0  0
   18.5796  -10.4723    0.0000 C   0  0  0  0  0  0  0  0  0  0  0  0
   17.1829  -11.8691    0.0000 C   0  0  0  0  0  0  0  0  0  0  0  0
   19.9764  -11.8691    0.0000 C   0  0  0  0  0  0  0  0  0  0  0  0
   17.4622  -18.2941    0.0000 C   0  0  0  0  0  0  0  0  0  0  0  0
   17.8813  -19.6210    0.0000 C   0  0  0  0  0  0  0  0  0  0  0  0
   19.2780  -19.6210    0.0000 C   0  0  0  0  0  0  0  0  0  0  0  0
   19.7669  -18.2941    0.0000 C   0  0  0  0  0  0  0  0  0  0  0  0
   20.9541  -16.1990    0.0000 C   0  0  0  0  0  0  0  0  0  0  0  0
   20.9541  -17.5957    0.0000 C   0  0  0  0  0  0  0  0  0  0  0  0
   22.1413  -18.2941    0.0000 C   0  0  0  0  0  0  0  0  0  0  0  0
   23.3984  -17.5957    0.0000 C   0  0  0  0  0  0  0  0  0  0  0  0
   23.3984  -16.1990    0.0000 C   0  0  0  0  0  0  0  0  0  0  0  0
   22.1413  -15.5006    0.0000 C   0  0  0  0  0  0  0  0  0  0  0  0
   13.8307  -16.1990    0.0000 C   0  0  0  0  0  0  0  0  0  0  0  0
   13.8307  -17.5957    0.0000 C   0  0  0  0  0  0  0  0  0  0  0  0
   15.0179  -18.2941    0.0000 C   0  0  0  0  0  0  0  0  0  0  0  0
   16.2750  -17.5957    0.0000 C   0  0  0  0  0  0  0  0  0  0  0  0
   16.2750  -16.1990    0.0000 C   0  0  0  0  0  0  0  0  0  0  0  0
   15.0179  -15.5006    0.0000 C   0  0  0  0  0  0  0  0  0  0  0  0
   12.6435  -15.5006    0.0000 N   0  0  0  0  0  0  0  0  0  0  0  0
   11.4562  -16.1990    0.0000 C   0  0  0  0  0  0  0  0  0  0  0  0
   10.2690  -15.5006    0.0000 C   0  0  0  0  0  0  0  0  0  0  0  0
   11.4562  -17.5957    0.0000 O   0  0  0  0  0  0  0  0  0  0  0  0
    9.0818  -16.3387    0.0000 N   0  0  0  0  0  0  0  0  0  0  0  0
    7.9644  -15.5006    0.0000 C   0  0  0  0  0  0  0  0  0  0  0  0
    8.3834  -14.1737    0.0000 C   0  0  0  0  0  0  0  0  0  0  0  0
    9.7801  -14.1737    0.0000 C   0  0  0  0  0  0  0  0  0  0  0  0
    9.0818  -17.7354    0.0000 C   0  0  0  0  0  0  0  0  0  0  0  0
    7.8247  -18.4338    0.0000 C   0  0  0  0  0  0  0  0  0  0  0  0
   10.2690  -18.4338    0.0000 O   0  0  0  0  0  0  0  0  0  0  0  0
    6.6375  -17.6656    0.0000 C   0  0  0  0  0  0  0  0  0  0  0  0
    5.4502  -18.3639    0.0000 C   0  0  0  0  0  0  0  0  0  0  0  0
    6.6375  -16.2688    0.0000 C   0  0  0  0  0  0  0  0  0  0  0  0
    7.8247  -19.8305    0.0000 N   0  0  0  0  0  0  0  0  0  0  0  0
    6.6375  -20.5289    0.0000 C   0  0  0  0  0  0  0  0  0  0  0  0
    5.4502  -19.8305    0.0000 O   0  0  0  0  0  0  0  0  0  0  0  0
    4.1932  -20.5289    0.0000 C   0  0  0  0  0  0  0  0  0  0  0  0
    6.6375  -21.9256    0.0000 O   0  0  0  0  0  0  0  0  0  0  0  0
   24.5856  -15.5006    0.0000 N   0  0  0  0  0  0  0  0  0  0  0  0
   25.7729  -16.1990    0.0000 C   0  0  0  0  0  0  0  0  0  0  0  0
   26.9601  -15.5006    0.0000 C   0  0  0  0  0  0  0  0  0  0  0  0
   25.7729  -17.5957    0.0000 O   0  0  0  0  0  0  0  0  0  0  0  0
   28.1473  -16.3387    0.0000 N   0  0  0  0  0  0  0  0  0  0  0  0
   29.2647  -15.5006    0.0000 C   0  0  0  0  0  0  0  0  0  0  0  0
   28.8457  -14.1737    0.0000 C   0  0  0  0  0  0  0  0  0  0  0  0
   27.4490  -14.1737    0.0000 C   0  0  0  0  0  0  0  0  0  0  0  0
   28.1473  -17.7354    0.0000 C   0  0  0  0  0  0  0  0  0  0  0  0
   29.4044  -18.4338    0.0000 C   0  0  0  0  0  0  0  0  0  0  0  0
   26.9601  -18.4338    0.0000 O   0  0  0  0  0  0  0  0  0  0  0  0
   30.5916  -17.6656    0.0000 C   0  0  0  0  0  0  0  0  0  0  0  0
   31.7789  -18.3639    0.0000 C   0  0  0  0  0  0  0  0  0  0  0  0
   30.5916  -16.2688    0.0000 C   0  0  0  0  0  0  0  0  0  0  0  0
   29.4044  -19.8305    0.0000 N   0  0  0  0  0  0  0  0  0  0  0  0
   30.5916  -20.5289    0.0000 C   0  0  0  0  0  0  0  0  0  0  0  0
   31.7789  -19.8305    0.0000 O   0  0  0  0  0  0  0  0  0  0  0  0
   33.0359  -20.5289    0.0000 C   0  0  0  0  0  0  0  0  0  0  0  0
   30.5916  -21.9256    0.0000 O   0  0  0  0  0  0  0  0  0  0  0  0
   19.9500  -16.5900    0.0000 C   0  0  0  0  0  0  0  0  0  0  0  0
   21.2100  -17.0800    0.0000 C   0  0  0  0  0  0  0  0  0  0  0  0
   22.1200  -16.1000    0.0000 C   0  0  0  0  0  0  0  0  0  0  0  0
   21.4200  -14.9100    0.0000 N   0  0  0  0  0  0  0  0  0  0  0  0
   20.1600  -15.2600    0.0000 C   0  0  0  0  0  0  0  0  0  0  0  0
   23.5200  -16.1000    0.0000 C   0  0  0  0  0  0  0  0  0  0  0  0
   24.2200  -14.9800    0.0000 N   0  0  0  0  0  0  0  0  0  0  0  0
   23.5200  -13.7200    0.0000 O   0  0  0  0  0  0  0  0  0  0  0  0
   22.1200  -13.7200    0.0000 C   0  0  0  0  0  0  0  0  0  0  0  0
   24.2900  -17.2200    0.0000 O   0  0  0  0  0  0  0  0  0  0  0  0
   23.4500  -11.3400    0.0000 C   0  0  0  0  0  0  0  0  0  0  0  0
   22.0500  -11.3400    0.0000 C   0  0  0  0  0  0  0  0  0  0  0  0
   21.3500  -12.4600    0.0000 C   0  0  0  0  0  0  0  0  0  0  0  0
   26.1100  -11.2700    0.0000 C   0  0  0  0  0  0  0  0  0  0  0  0
   25.4800  -10.0800    0.0000 C   0  0  0  0  0  0  0  0  0  0  0  0
   24.1500  -10.0800    0.0000 C   0  0  0  0  0  0  0  0  0  0  0  0
   27.4400  -14.0000    0.0000 C   0  0  0  0  0  0  0  0  0  0  0  0
   28.2100  -12.6700    0.0000 C   0  0  0  0  0  0  0  0  0  0  0  0
   27.5100  -11.2700    0.0000 C   0  0  0  0  0  0  0  0  0  0  0  0
   26.4600  -14.9800    0.0000 C   0  0  0  0  0  0  0  0  0  0  0  0
   27.7200  -15.3300    0.0000 C   0  0  0  0  0  0  0  0  0  0  0  0
   18.4100  -18.5500    0.0000 C   0  0  0  0  0  0  0  0  0  0  0  0
   18.4100  -17.2200    0.0000 O   0  0  0  0  0  0  0  0  0  0  0  0
   19.9500  -12.5300    0.0000 N   0  0  0  0  0  0  0  0  0  0  0  0
   19.2500  -11.2700    0.0000 C   0  0  0  0  0  0  0  0  0  0  0  0
   17.9200  -11.2700    0.0000 C   0  0  0  0  0  0  0  0  0  0  0  0
   19.9500  -10.0800    0.0000 O   0  0  0  0  0  0  0  0  0  0  0  0
   17.2900  -10.0800    0.0000 N   0  0  0  0  0  0  0  0  0  0  0  0
   15.8900  -10.0800    0.0000 C   0  0  0  0  0  0  0  0  0  0  0  0
   15.1900  -11.2700    0.0000 C   0  0  0  0  0  0  0  0  0  0  0  0
   15.8900  -12.4600    0.0000 N   0  0  0  0  0  0  0  0  0  0  0  0
   17.2900  -12.4600    0.0000 C   0  0  0  0  0  0  0  0  0  0  0  0
   13.7900  -11.2700    0.0000 C   0  0  0  0  0  0  0  0  0  0  0  0
   17.2900  -19.2500    0.0000 N   0  0  0  0  0  0  0  0  0  0  0  0
   17.2900  -20.6500    0.0000 C   0  0  0  0  0  0  0  0  0  0  0  0
   18.4100  -21.3500    0.0000 C   0  0  0  0  0  0  0  0  0  0  0  0
   19.6000  -20.6500    0.0000 C   0  0  0  0  0  0  0  0  0  0  0  0
   19.6000  -19.2500    0.0000 C   0  0  0  0  0  0  0  0  0  0  0  0
   20.8600  -21.3500    0.0000 C   0  0  0  0  0  0  0  0  0  0  0  0
   22.0500  -20.6500    0.0000 C   0  0  0  0  0  0  0  0  0  0  0  0
   22.0500  -19.2500    0.0000 C   0  0  0  0  0  0  0  0  0  0  0  0
   20.8600  -18.5500    0.0000 C   0  0  0  0  0  0  0  0  0  0  0  0
   16.0300  -21.3500    0.0000 C   0  0  0  0  0  0  0  0  0  0  0  0
   16.0300  -22.7500    0.0000 C   0  0  0  0  0  0  0  0  0  0  0  0
   17.2900  -23.4500    0.0000 C   0  0  0  0  0  0  0  0  0  0  0  0
   18.4100  -22.7500    0.0000 C   0  0  0  0  0  0  0  0  0  0  0  0
   26.4600  -16.3800    0.0000 C   0  0  0  0  0  0  0  0  0  0  0  0
   25.2700  -17.0800    0.0000 N   0  0  0  0  0  0  0  0  0  0  0  0
   27.6500  -17.0800    0.0000 O   0  0  0  0  0  0  0  0  0  0  0  0
   25.2700  -18.4100    0.0000 S   0  0  0  0  0  0  0  0  0  0  0  0
   26.6700  -18.4100    0.0000 O   0  0  0  0  0  0  0  0  0  0  0  0
   23.8700  -18.4100    0.0000 O   0  0  0  0  0  0  0  0  0  0  0  0
   25.2700  -19.8100    0.0000 C   0  0  0  0  0  0  0  0  0  0  0  0
   24.5700  -21.0000    0.0000 C   0  0  0  0  0  0  0  0  0  0  0  0
   25.9700  -21.0000    0.0000 C   0  0  0  0  0  0  0  0  0  0  0  0
   23.6600  -23.4500    0.0000 O   0  0  0  0  0  0  0  0  0  0  0  0
   26.7400  -23.3800    0.0000 O   0  0  0  0  0  0  0  0  0  0  0  0
   19.3900  -16.1700    0.0000 C   0  0  0  0  0  0  0  0  0  0  0  0
   20.5800  -16.6600    0.0000 C   0  0  0  0  0  0  0  0  0  0  0  0
   21.4900  -15.6800    0.0000 C   0  0  0  0  0  0  0  0  0  0  0  0
   20.7900  -14.4900    0.0000 N   0  0  0  0  0  0  0  0  0  0  0  0
   19.5300  -14.7700    0.0000 C   0  0  0  0  0  0  0  0  0  0  0  0
   22.8900  -15.6800    0.0000 C   0  0  0  0  0  0  0  0  0  0  0  0
   23.5900  -14.5600    0.0000 N   0  0  0  0  0  0  0  0  0  0  0  0
   22.8900  -13.3000    0.0000 O   0  0  0  0  0  0  0  0  0  0  0  0
   21.4900  -13.3000    0.0000 C   0  0  0  0  0  0  0  0  0  0  0  0
   23.6600  -16.8000    0.0000 O   0  0  0  0  0  0  0  0  0  0  0  0
   22.8200  -10.9200    0.0000 C   0  0  0  0  0  0  0  0  0  0  0  0
   21.4200  -10.9200    0.0000 C   0  0  0  0  0  0  0  0  0  0  0  0
   20.7200  -12.0400    0.0000 C   0  0  0  0  0  0  0  0  0  0  0  0
   25.4800  -10.8500    0.0000 C   0  0  0  0  0  0  0  0  0  0  0  0
   24.8500   -9.6600    0.0000 C   0  0  0  0  0  0  0  0  0  0  0  0
   23.5200   -9.6600    0.0000 C   0  0  0  0  0  0  0  0  0  0  0  0
   26.8100  -13.5800    0.0000 C   0  0  0  0  0  0  0  0  0  0  0  0
   27.5800  -12.2500    0.0000 C   0  0  0  0  0  0  0  0  0  0  0  0
   26.8800  -10.8500    0.0000 C   0  0  0  0  0  0  0  0  0  0  0  0
   25.8300  -14.5600    0.0000 C   0  0  0  0  0  0  0  0  0  0  0  0
   27.0900  -14.9100    0.0000 C   0  0  0  0  0  0  0  0  0  0  0  0
   17.7800  -18.2000    0.0000 C   0  0  0  0  0  0  0  0  0  0  0  0
   17.7800  -16.8000    0.0000 O   0  0  0  0  0  0  0  0  0  0  0  0
   19.3200  -12.1100    0.0000 N   0  0  0  0  0  0  0  0  0  0  0  0
   18.6200  -10.8500    0.0000 C   0  0  0  0  0  0  0  0  0  0  0  0
   17.2900  -10.8500    0.0000 C   0  0  0  0  0  0  0  0  0  0  0  0
   19.3200   -9.6600    0.0000 O   0  0  0  0  0  0  0  0  0  0  0  0
   16.5900   -9.6600    0.0000 N   0  0  0  0  0  0  0  0  0  0  0  0
   15.1900   -9.6600    0.0000 C   0  0  0  0  0  0  0  0  0  0  0  0
   14.4900  -10.8500    0.0000 C   0  0  0  0  0  0  0  0  0  0  0  0
   15.1900  -12.0400    0.0000 N   0  0  0  0  0  0  0  0  0  0  0  0
   16.5900  -12.0400    0.0000 C   0  0  0  0  0  0  0  0  0  0  0  0
   13.0900  -10.8500    0.0000 C   0  0  0  0  0  0  0  0  0  0  0  0
   16.5900  -18.9000    0.0000 N   0  0  0  0  0  0  0  0  0  0  0  0
   16.5900  -20.3000    0.0000 C   0  0  0  0  0  0  0  0  0  0  0  0
   17.7800  -21.0000    0.0000 C   0  0  0  0  0  0  0  0  0  0  0  0
   18.9700  -20.3000    0.0000 C   0  0  0  0  0  0  0  0  0  0  0  0
   18.9700  -18.9000    0.0000 C   0  0  0  0  0  0  0  0  0  0  0  0
   20.2300  -21.0000    0.0000 C   0  0  0  0  0  0  0  0  0  0  0  0
   21.4200  -20.3000    0.0000 C   0  0  0  0  0  0  0  0  0  0  0  0
   21.4200  -18.9000    0.0000 C   0  0  0  0  0  0  0  0  0  0  0  0
   20.2300  -18.2000    0.0000 C   0  0  0  0  0  0  0  0  0  0  0  0
   15.3300  -21.0000    0.0000 C   0  0  0  0  0  0  0  0  0  0  0  0
   15.3300  -22.4000    0.0000 C   0  0  0  0  0  0  0  0  0  0  0  0
   16.5900  -23.1000    0.0000 C   0  0  0  0  0  0  0  0  0  0  0  0
   17.7800  -22.4000    0.0000 C   0  0  0  0  0  0  0  0  0  0  0  0
   25.8300  -15.9600    0.0000 C   0  0  0  0  0  0  0  0  0  0  0  0
   24.6400  -16.6600    0.0000 N   0  0  0  0  0  0  0  0  0  0  0  0
   27.0200  -16.6600    0.0000 O   0  0  0  0  0  0  0  0  0  0  0  0
   24.6400  -18.0600    0.0000 S   0  0  0  0  0  0  0  0  0  0  0  0
   26.0400  -18.0600    0.0000 O   0  0  0  0  0  0  0  0  0  0  0  0
   23.2400  -18.0600    0.0000 O   0  0  0  0  0  0  0  0  0  0  0  0
   24.6400  -19.4600    0.0000 C   0  0  0  0  0  0  0  0  0  0  0  0
   23.9400  -20.6500    0.0000 C   0  0  0  0  0  0  0  0  0  0  0  0
   25.3400  -20.6500    0.0000 C   0  0  0  0  0  0  0  0  0  0  0  0
   33.1164  -17.1963    0.0000 C   0  0  0  0  0  0  0  0  0  0  0  0
   33.1237  -18.5903    0.0000 C   0  0  0  0  0  0  0  0  0  0  0  0
   34.3298  -16.5030    0.0000 C   0  0  0  0  0  0  0  0  0  0  0  0
   31.9103  -16.5103    0.0000 N   0  0  0  0  0  0  0  0  0  0  0  0
   34.1059  -19.5798    0.0000 C   0  0  0  0  0  0  0  0  0  0  0  0
   35.5358  -17.1892    0.0000 C   0  0  0  0  0  0  0  0  0  0  0  0
   30.7041  -17.2037    0.0000 C   0  0  0  0  0  0  0  0  0  0  0  0
   33.3982  -20.7786    0.0000 C   0  0  0  0  0  0  0  0  0  0  0  0
   35.4926  -19.5868    0.0000 C   0  0  0  0  0  0  0  0  0  0  0  0
   36.7348  -16.4960    0.0000 C   0  0  0  0  0  0  0  0  0  0  0  0
   35.5431  -18.5831    0.0000 O   0  0  0  0  0  0  0  0  0  0  0  0
   29.4983  -16.5175    0.0000 C   0  0  0  0  0  0  0  0  0  0  0  0
   30.7041  -18.5975    0.0000 O   0  0  0  0  0  0  0  0  0  0  0  0
   34.0915  -21.9846    0.0000 C   0  0  0  0  0  0  0  0  0  0  0  0
   36.1859  -20.7931    0.0000 C   0  0  0  0  0  0  0  0  0  0  0  0
   36.7348  -15.0948    0.0000 C   0  0  0  0  0  0  0  0  0  0  0  0
   37.9408  -17.1819    0.0000 N   0  0  0  0  0  0  0  0  0  0  0  0
   28.2849  -17.2108    0.0000 N   0  0  0  0  0  0  0  0  0  0  0  0
   29.4909  -14.6983    0.0000 C   0  0  0  0  0  0  0  0  0  0  0  0
   35.4782  -21.9919    0.0000 C   0  0  0  0  0  0  0  0  0  0  0  0
   35.5212  -14.3942    0.0000 C   0  0  0  0  0  0  0  0  0  0  0  0
   39.1540  -16.4886    0.0000 C   0  0  0  0  0  0  0  0  0  0  0  0
   27.0787  -16.5247    0.0000 C   0  0  0  0  0  0  0  0  0  0  0  0
   30.7041  -13.9977    0.0000 C   0  0  0  0  0  0  0  0  0  0  0  0
   28.2776  -13.9977    0.0000 C   0  0  0  0  0  0  0  0  0  0  0  0
   35.5212  -13.0004    0.0000 C   0  0  0  0  0  0  0  0  0  0  0  0
   34.3225  -15.1019    0.0000 C   0  0  0  0  0  0  0  0  0  0  0  0
   40.3603  -17.1748    0.0000 O   0  0  0  0  0  0  0  0  0  0  0  0
   39.1465  -15.0875    0.0000 O   0  0  0  0  0  0  0  0  0  0  0  0
   25.8799  -17.2181    0.0000 N   0  0  0  0  0  0  0  0  0  0  0  0
   27.0787  -15.1237    0.0000 O   0  0  0  0  0  0  0  0  0  0  0  0
   34.3153  -12.3071    0.0000 C   0  0  0  0  0  0  0  0  0  0  0  0
   33.1092  -14.4013    0.0000 C   0  0  0  0  0  0  0  0  0  0  0  0
   41.5663  -16.4815    0.0000 C   0  0  0  0  0  0  0  0  0  0  0  0
   24.6737  -16.5321    0.0000 C   0  0  0  0  0  0  0  0  0  0  0  0
   25.8799  -18.6120    0.0000 C   0  0  0  0  0  0  0  0  0  0  0  0
   33.1092  -13.0075    0.0000 C   0  0  0  0  0  0  0  0  0  0  0  0
   42.7723  -17.1675    0.0000 C   0  0  0  0  0  0  0  0  0  0  0  0
   23.4604  -17.2252    0.0000 C   0  0  0  0  0  0  0  0  0  0  0  0
   42.7653  -18.5615    0.0000 C   0  0  0  0  0  0  0  0  0  0  0  0
   44.1013  -16.7485    0.0000 S   0  0  0  0  0  0  0  0  0  0  0  0
   22.1171  -16.8642    0.0000 N   0  0  0  0  0  0  0  0  0  0  0  0
   23.4626  -18.6191    0.0000 C   0  0  0  0  0  0  0  0  0  0  0  0
   44.0868  -18.9947    0.0000 N   0  0  0  0  0  0  0  0  0  0  0  0
   44.9100  -17.8754    0.0000 C   0  0  0  0  0  0  0  0  0  0  0  0
   21.3445  -18.0341    0.0000 C   0  0  0  0  0  0  0  0  0  0  0  0
   22.2256  -19.1175    0.0000 S   0  0  0  0  0  0  0  0  0  0  0  0
   19.9506  -18.0296    0.0000 C   0  0  0  0  0  0  0  0  0  0  0  0
   19.1994  -16.8594    0.0000 C   0  0  0  0  0  0  0  0  0  0  0  0
   19.3149  -19.2789    0.0000 C   0  0  0  0  0  0  0  0  0  0  0  0
  1  2  2  0
  2  3  1  0
  3  4  2  0
  4  5  1  0
  5  6  2  0
  1  6  1  0
  4  7  1  0
  7  8  2  0
  8  9  1  0
  9 10  2  0
  5 10  1  0
  9 11  1  0
 11 12  2  0
 12 13  1  0
 13 14  2  0
 14 15  1  0
 15 16  2  0
 11 16  1  0
 16 17  1  0
 17 18  1  0
 15 19  1  0
 19 20  1  0
 19 21  1  0
 19 22  1  0
 13 23  1  0
 23 24  1  0
 24 25  2  0
 25 26  1  0
 26 27  1  0
 27 28  1  0
 23 28  1  0
 26 29  2  0
 28 30  2  0
  2 31  1  0
 31 32  1  0
 32 33  1  0
 32 34  2  0
 32 35  2  0
 38 39  2  0
 39 40  1  0
 40 41  2  0
 41 42  1  0
 42 43  2  0
 38 43  1  0
 41 44  1  0
 44 45  2  0
 45 46  1  0
 46 47  2  0
 42 47  1  0
 46 48  1  0
 48 49  2  0
 49 50  1  0
 50 51  2  0
 51 52  1  0
 52 53  2  0
 48 53  1  0
 53 54  1  0
 54 55  1  0
 52 56  1  0
 56 57  1  0
 56 58  1  0
 56 59  1  0
 50 60  1  0
 60 61  1  0
 61 62  2  0
 62 63  1  0
 63 64  1  0
 64 65  1  0
 60 65  1  0
 63 66  2  0
 65 67  2  0
 39 68  1  0
 68 69  1  0
 69 70  1  0
 69 71  2  0
 69 72  2  0
 73 74  2  0
 74 75  1  0
 75 76  2  0
 76 77  1  0
 77 78  2  0
 73 78  1  0
 75 79  1  0
 78 80  1  0
 80 81  1  0
 80 82  1  0
 80 83  1  0
 79 84  1  0
 84 85  1  0
 85 86  1  0
 86 87  1  0
 79 87  1  0
 88 89  2  0
 89 90  1  0
 90 91  2  0
 91 92  1  0
 92 93  2  0
 88 93  1  0
 87 89  1  6
 94 95  2  0
 95 96  1  0
 96 97  2  0
 97 98  1  0
 98 99  2  0
 94 99  1  0
 84 97  1  1
 94100  1  0
100101  1  0
102101  1  1
101103  2  0
104105  1  0
105106  1  0
106107  1  0
107102  1  0
104102  1  0
104108  1  0
108109  1  0
108110  2  0
109111  1  0
111112  1  0
111113  1  0
109114  1  1
114115  1  0
115116  1  0
116117  1  0
115118  2  0
119120  1  0
121120  1  6
120122  2  0
123124  1  0
124125  1  0
125126  1  0
126121  1  0
123121  1  0
123127  1  0
127128  1  0
127129  2  0
128130  1  0
130131  1  0
130132  1  0
128133  1  6
133134  1  0
134135  1  0
135136  1  0
134137  2  0
119 92  1  0
139140  2  0
140141  1  0
141142  2  0
142143  1  0
143144  2  0
139144  1  0
141149  1  0
144145  1  0
145146  1  0
145147  1  0
145148  1  0
149150  1  0
150151  1  0
151152  1  0
152153  1  0
149153  1  0
155154  2  0
154159  1  0
159158  2  0
158157  1  0
157156  2  0
155156  1  0
153154  1  6
182181  1  0
181180  2  0
180179  1  0
179184  2  0
184183  1  0
182183  2  0
150179  1  1
182185  1  0
185186  1  0
187186  1  1
186203  2  0
191190  1  0
190189  1  0
189188  1  0
188187  1  0
191187  1  0
191192  1  0
192193  1  0
192202  2  0
193194  1  0
194195  1  0
194196  1  0
193197  1  1
197198  1  0
198199  1  0
199200  1  0
198201  2  0
160161  1  0
162161  1  6
161178  2  0
166165  1  0
165164  1  0
164163  1  0
163162  1  0
166162  1  0
166167  1  0
167168  1  0
167177  2  0
168169  1  0
169170  1  0
169171  1  0
168172  1  6
172173  1  0
173174  1  0
174175  1  0
173176  2  0
160157  1  0
212213  2  0
213214  1  0
214215  2  0
215216  1  0
216217  2  0
212217  1  0
214218  1  0
217219  1  0
219220  1  0
219221  1  0
219222  1  0
218223  1  0
223224  1  0
224225  1  0
225226  1  0
218226  1  0
227228  2  0
228229  1  0
229230  2  0
230231  1  0
231232  2  0
227232  1  0
226228  1  6
233234  2  0
234235  1  0
235236  2  0
236237  1  0
237238  2  0
233238  1  0
223236  1  1
233239  1  0
239240  1  0
241240  1  1
240242  2  0
243244  1  0
244245  1  0
245246  1  0
246241  1  0
243241  1  0
243247  1  0
247248  1  0
247249  2  0
248250  1  0
250251  1  0
250252  1  0
248253  1  1
253254  1  0
254255  1  0
255256  1  0
254257  2  0
258259  1  0
260259  1  6
259261  2  0
262263  1  0
263264  1  0
264265  1  0
265260  1  0
262260  1  0
262266  1  0
266267  1  0
266268  2  0
267269  1  0
269270  1  0
269271  1  0
267272  1  6
272273  1  0
273274  1  0
274275  1  0
273276  2  0
258231  1  0
277278  1  0
279278  1  6
279280  1  0
280281  1  0
277281  1  0
282283  1  0
284285  2  0
280285  1  0
282286  2  0
287288  1  0
288289  1  0
289285  1  0
290291  1  0
287292  1  0
294295  2  0
290295  1  0
293296  1  0
296297  1  0
293297  1  1
296283  1  0
294293  1  0
298299  1  0
277299  1  1
279282  1  0
292291  1  0
289300  1  1
300301  1  0
301302  1  0
301303  2  0
302304  2  0
304305  1  0
305306  2  0
306307  1  0
307308  2  0
302308  1  0
306309  1  0
298310  2  0
310311  1  0
311312  2  0
312313  1  0
313314  2  0
298314  1  0
313315  1  0
315316  2  0
316317  1  0
317318  2  0
314318  1  0
311319  1  0
319320  2  0
320321  1  0
321322  2  0
312322  1  0
296323  1  6
323324  1  0
323325  2  0
324326  1  0
326327  2  0
326328  2  0
326329  1  0
330331  1  0
331329  1  0
329330  1  0
334335  1  0
336335  1  6
336337  1  0
337338  1  0
334338  1  0
339340  1  0
341342  2  0
337342  1  0
339343  2  0
344345  1  0
345346  1  0
346342  1  0
347348  1  0
344349  1  0
351352  2  0
347352  1  0
350353  1  0
353354  1  0
350354  1  1
353340  1  0
351350  1  0
355356  1  0
334356  1  1
336339  1  0
349348  1  0
346357  1  1
357358  1  0
358359  1  0
358360  2  0
359361  2  0
361362  1  0
362363  2  0
363364  1  0
364365  2  0
359365  1  0
363366  1  0
355367  2  0
367368  1  0
368369  2  0
369370  1  0
370371  2  0
355371  1  0
370372  1  0
372373  2  0
373374  1  0
374375  2  0
371375  1  0
368376  1  0
376377  2  0
377378  1  0
378379  2  0
369379  1  0
353380  1  6
380381  1  0
380382  2  0
381383  1  0
383384  2  0
383385  2  0
383386  1  0
387388  1  0
388386  1  0
386387  1  0
389390  1  6
389391  1  0
389392  1  0
390393  1  0
391394  1  0
392395  1  0
393396  2  0
393397  1  0
394398  1  0
394399  1  1
395400  1  0
395401  2  0
396402  1  0
397403  2  0
398404  1  6
398405  1  0
400406  1  1
400407  1  0
402408  2  0
404409  1  0
405410  1  0
406411  1  0
407412  1  0
407413  1  0
409414  2  0
409415  1  0
410416  1  0
410417  2  0
411418  1  0
411419  2  0
414420  1  0
415421  2  0
416422  1  0
418423  1  0
418424  1  0
420425  2  0
422426  1  0
423427  1  0
426428  2  0
426429  1  0
427430  1  0
427431  2  0
428432  1  0
429433  1  0
430434  2  0
431435  1  0
434436  1  0
436437  1  0
436438  1  0
403408  1  0
421425  1  0
432433  2  0
434435  1  0
M  CHG  2  31  -1  36   1
M  END
