 
     RDKit          2D

 97105  0  0  1  0  0  0  0  0999 V2000
   17.3600  -15.2600    0.0000 C   0  0  0  0  0  0  0  0  0  0  0  0
   17.3600  -16.6600    0.0000 C   0  0  0  0  0  0  0  0  0  0  0  0
   18.5500  -17.3600    0.0000 C   0  0  0  0  0  0  0  0  0  0  0  0
   19.8100  -16.6600    0.0000 C   0  0  0  0  0  0  0  0  0  0  0  0
   19.8100  -15.2600    0.0000 C   0  0  0  0  0  0  0  0  0  0  0  0
   18.5500  -14.5600    0.0000 C   0  0  0  0  0  0  0  0  0  0  0  0
   21.1400  -17.0800    0.0000 C   0  0  0  0  0  0  0  0  0  0  0  0
   21.9100  -15.9600    0.0000 C   0  0  0  0  0  0  0  0  0  0  0  0
   21.1400  -14.8400    0.0000 C   0  0  0  0  0  0  0  0  0  0  0  0
   19.8100  -13.8600    0.0000 C   0  0  0  0  0  0  0  0  0  0  0  0
   18.5500  -18.8300    0.0000 C   0  0  0  0  0  0  0  0  0  0  0  0
   17.3600  -19.5300    0.0000 C   0  0  0  0  0  0  0  0  0  0  0  0
   17.3600  -20.9300    0.0000 C   0  0  0  0  0  0  0  0  0  0  0  0
   16.1700  -21.6300    0.0000 C   0  0  0  0  0  0  0  0  0  0  0  0
   16.1700  -23.0300    0.0000 C   0  0  0  0  0  0  0  0  0  0  0  0
   17.3600  -23.7300    0.0000 C   0  0  0  0  0  0  0  0  0  0  0  0
   18.5500  -23.0300    0.0000 C   0  0  0  0  0  0  0  0  0  0  0  0
   18.5500  -21.6300    0.0000 C   0  0  0  0  0  0  0  0  0  0  0  0
   19.7400  -20.9300    0.0000 C   0  0  0  0  0  0  0  0  0  0  0  0
   14.9800  -23.7300    0.0000 O   0  0  0  0  0  0  0  0  0  0  0  0
   19.7400  -23.7300    0.0000 O   0  0  0  0  0  0  0  0  0  0  0  0
   21.5600  -13.5100    0.0000 C   0  0  0  0  0  0  0  0  0  0  0  0
   22.9600  -13.5100    0.0000 C   0  0  0  0  0  0  0  0  0  0  0  0
   20.7200  -12.3900    0.0000 C   0  0  0  0  0  0  0  0  0  0  0  0
   23.7300  -12.3200    0.0000 C   0  0  0  0  0  0  0  0  0  0  0  0
   25.1300  -12.3200    0.0000 C   0  0  0  0  0  0  0  0  0  0  0  0
   25.8300  -13.5100    0.0000 O   0  0  0  0  0  0  0  0  0  0  0  0
   25.8300  -11.1300    0.0000 C   0  0  0  0  0  0  0  0  0  0  0  0
   27.0200  -10.4300    0.0000 C   0  0  0  0  0  0  0  0  0  0  0  0
   25.8300   -9.7300    0.0000 C   0  0  0  0  0  0  0  0  0  0  0  0
   25.8300  -22.1200    0.0000 O   0  0  0  0  0  0  0  0  0  0  0  0
   19.6700  -23.3100    0.0000 C   0  0  0  0  0  0  0  0  0  0  0  0
   19.6700  -24.7100    0.0000 C   0  0  0  0  0  0  0  0  0  0  0  0
   20.8600  -25.4100    0.0000 C   0  0  0  0  0  0  0  0  0  0  0  0
   22.1200  -24.7100    0.0000 C   0  0  0  0  0  0  0  0  0  0  0  0
   22.1200  -23.3100    0.0000 C   0  0  0  0  0  0  0  0  0  0  0  0
   20.8600  -22.6100    0.0000 C   0  0  0  0  0  0  0  0  0  0  0  0
   23.4500  -25.1300    0.0000 C   0  0  0  0  0  0  0  0  0  0  0  0
   24.2200  -24.0100    0.0000 C   0  0  0  0  0  0  0  0  0  0  0  0
   23.4500  -22.8900    0.0000 C   0  0  0  0  0  0  0  0  0  0  0  0
   22.1200  -21.9100    0.0000 C   0  0  0  0  0  0  0  0  0  0  0  0
   20.8600  -26.8100    0.0000 C   0  0  0  0  0  0  0  0  0  0  0  0
   19.6700  -27.5100    0.0000 C   0  0  0  0  0  0  0  0  0  0  0  0
   19.6700  -28.9100    0.0000 C   0  0  0  0  0  0  0  0  0  0  0  0
   18.4800  -29.6100    0.0000 C   0  0  0  0  0  0  0  0  0  0  0  0
   18.4800  -31.0100    0.0000 C   0  0  0  0  0  0  0  0  0  0  0  0
   19.6700  -31.7100    0.0000 C   0  0  0  0  0  0  0  0  0  0  0  0
   20.8600  -31.0100    0.0000 C   0  0  0  0  0  0  0  0  0  0  0  0
   20.8600  -29.6100    0.0000 C   0  0  0  0  0  0  0  0  0  0  0  0
   22.0500  -28.9100    0.0000 C   0  0  0  0  0  0  0  0  0  0  0  0
   17.2900  -31.7100    0.0000 O   0  0  0  0  0  0  0  0  0  0  0  0
   22.0500  -31.7100    0.0000 O   0  0  0  0  0  0  0  0  0  0  0  0
   23.8700  -21.5600    0.0000 C   0  0  0  0  0  0  0  0  0  0  0  0
   25.2700  -21.5600    0.0000 C   0  0  0  0  0  0  0  0  0  0  0  0
   23.0300  -20.4400    0.0000 C   0  0  0  0  0  0  0  0  0  0  0  0
   25.9700  -20.3700    0.0000 C   0  0  0  0  0  0  0  0  0  0  0  0
   27.3700  -20.3700    0.0000 C   0  0  0  0  0  0  0  0  0  0  0  0
   28.0700  -21.5600    0.0000 O   0  0  0  0  0  0  0  0  0  0  0  0
   28.0700  -19.1800    0.0000 C   0  0  0  0  0  0  0  0  0  0  0  0
   29.2817  -18.4787    0.0000 C   0  0  0  0  0  0  0  0  0  0  0  0
   28.0797  -17.7994    0.0000 C   0  0  0  0  0  0  0  0  0  0  0  0
    6.3892  -13.6510    0.0000 C   0  0  0  0  0  0  0  0  0  0  0  0
    6.3892  -15.0117    0.0000 C   0  0  0  0  0  0  0  0  0  0  0  0
    7.5675  -15.6920    0.0000 C   0  0  0  0  0  0  0  0  0  0  0  0
    8.7459  -15.0117    0.0000 C   0  0  0  0  0  0  0  0  0  0  0  0
    8.7459  -13.6510    0.0000 C   0  0  0  0  0  0  0  0  0  0  0  0
    7.5675  -12.9707    0.0000 C   0  0  0  0  0  0  0  0  0  0  0  0
    9.9243  -15.6920    0.0000 C   0  0  0  0  0  0  0  0  0  0  0  0
   11.1026  -15.0117    0.0000 C   0  0  0  0  0  0  0  0  0  0  0  0
   11.1026  -13.6510    0.0000 C   0  0  0  0  0  0  0  0  0  0  0  0
    9.9243  -12.9707    0.0000 C   0  0  0  0  0  0  0  0  0  0  0  0
   12.2810  -12.9707    0.0000 C   0  0  0  0  0  0  0  0  0  0  0  0
   12.2810  -11.6100    0.0000 C   0  0  0  0  0  0  0  0  0  0  0  0
   11.1026  -10.9297    0.0000 C   0  0  0  0  0  0  0  0  0  0  0  0
    9.9243  -11.6100    0.0000 C   0  0  0  0  0  0  0  0  0  0  0  0
   14.6377  -12.9707    0.0000 C   0  0  0  0  0  0  0  0  0  0  0  0
   14.6377  -11.6100    0.0000 C   0  0  0  0  0  0  0  0  0  0  0  0
   13.4594  -10.9297    0.0000 C   0  0  0  0  0  0  0  0  0  0  0  0
    8.7459  -12.2903    0.0000 C   0  0  0  0  0  0  0  0  0  0  0  0
    8.7479  -10.9309    0.0000 O   0  0  0  0  0  0  0  0  0  0  0  0
   12.2810  -10.2494    0.0000 C   0  0  0  0  0  0  0  0  0  0  0  0
   15.8036  -10.9368    0.0000 C   0  0  0  0  0  0  0  0  0  0  0  0
   13.4594   -9.2289    0.0000 C   0  0  0  0  0  0  0  0  0  0  0  0
    9.9243  -14.3313    0.0000 F   0  0  0  0  0  0  0  0  0  0  0  0
   15.2677   -9.8294    0.0000 O   0  0  0  0  0  0  0  0  0  0  0  0
    5.2109  -15.6920    0.0000 O   0  0  0  0  0  0  0  0  0  0  0  0
   14.6417   -8.5463    0.0000 O   0  0  0  0  0  0  0  0  0  0  0  0
   12.2849   -8.5508    0.0000 C   0  0  0  0  0  0  0  0  0  0  0  0
   11.1250   -9.2207    0.0000 O   0  0  0  0  0  0  0  0  0  0  0  0
    9.9245   -8.5280    0.0000 C   0  0  0  0  0  0  0  0  0  0  0  0
    8.7188   -9.2247    0.0000 C   0  0  0  0  0  0  0  0  0  0  0  0
    7.5362   -8.5423    0.0000 C   0  0  0  0  0  0  0  0  0  0  0  0
    9.9243   -7.1401    0.0000 O   0  0  0  0  0  0  0  0  0  0  0  0
   16.6677   -9.8294    0.0000 C   0  0  0  0  0  0  0  0  0  0  0  0
   17.3532  -11.0163    0.0000 O   0  0  0  0  0  0  0  0  0  0  0  0
   17.3786   -8.5985    0.0000 C   0  0  0  0  0  0  0  0  0  0  0  0
   18.7600   -8.5989    0.0000 C   0  0  0  0  0  0  0  0  0  0  0  0
  1  2  1  0
  2  3  1  0
  3  4  1  0
  4  5  1  0
  5  6  1  0
  1  6  1  0
  4  7  1  1
  7  8  1  0
  9  8  1  1
  5  9  1  0
  5 10  1  1
  3 11  2  0
 11 12  1  0
 12 13  2  0
 13 14  1  0
 14 15  1  0
 15 16  1  0
 16 17  1  0
 17 18  1  0
 13 18  1  0
 18 19  2  0
 15 20  1  6
 17 21  1  1
  9 22  1  0
 22 23  1  0
 22 24  1  6
 23 25  2  0
 25 26  1  0
 26 27  1  6
 26 28  1  0
 28 29  1  0
 29 30  1  0
 30 28  1  0
 32 33  1  0
 33 34  1  0
 34 35  1  0
 35 36  1  0
 36 37  1  0
 32 37  1  0
 35 38  1  1
 38 39  1  0
 40 39  1  1
 36 40  1  0
 36 41  1  1
 34 42  2  0
 42 43  1  0
 43 44  2  0
 44 45  1  0
 45 46  1  0
 46 47  1  0
 47 48  1  0
 48 49  1  0
 44 49  1  0
 49 50  2  0
 46 51  1  6
 48 52  1  1
 40 53  1  0
 53 54  1  0
 53 55  1  6
 54 56  2  0
 56 57  1  0
 57 58  1  6
 57 59  1  0
 59 60  1  0
 60 61  1  0
 61 59  1  0
 62 63  1  0
 63 64  1  0
 64 65  2  0
 65 66  1  0
 66 67  1  0
 62 67  2  0
 65 68  1  0
 68 69  1  0
 70 69  1  6
 70 71  1  0
 66 71  1  0
 70 72  1  0
 72 73  1  0
 73 74  1  0
 74 75  1  0
 71 75  1  0
 72 76  1  1
 76 77  1  0
 77 78  1  0
 73 78  1  0
 66 79  1  1
 75 80  1  1
 73 81  1  1
 77 82  1  1
 78 83  1  0
 71 84  1  6
 78 85  1  6
 63 86  2  0
 83 87  2  0
 83 88  1  0
 88 89  1  0
 89 90  1  0
 90 91  1  0
 91 92  1  0
 90 93  2  0
 85 94  1  0
 94 95  2  0
 94 96  1  0
 96 97  1  0
M  END
