 
     RDKit          2D

 71 74  0  0  1  0  0  0  0  0999 V2000
   22.6100  -21.9100    0.0000 C   0  0  0  0  0  0  0  0  0  0  0  0
   22.6100  -23.3100    0.0000 N   0  0  0  0  0  0  0  0  0  0  0  0
   23.8000  -24.0100    0.0000 C   0  0  0  0  0  0  0  0  0  0  0  0
   25.0600  -23.3100    0.0000 C   0  0  0  0  0  0  0  0  0  0  0  0
   25.0600  -21.9100    0.0000 C   0  0  0  0  0  0  0  0  0  0  0  0
   23.8000  -21.1400    0.0000 S   0  0  0  0  0  0  0  0  0  0  0  0
   21.1400  -21.9100    0.0000 C   0  0  0  0  0  0  0  0  0  0  0  0
   21.1400  -23.3100    0.0000 C   0  0  0  0  0  0  0  0  0  0  0  0
   23.8000  -25.4100    0.0000 C   0  0  0  0  0  0  0  0  0  0  0  0
   22.6100  -26.1100    0.0000 O   0  0  0  0  0  0  0  0  0  0  0  0
   24.9900  -26.1100    0.0000 O   0  0  0  0  0  0  0  0  0  0  0  0
   26.2500  -24.0100    0.0000 C   0  0  0  0  0  0  0  0  0  0  0  0
   27.4400  -23.3100    0.0000 N   0  0  0  0  0  0  0  0  0  0  0  0
   28.5600  -24.1500    0.0000 N   0  0  0  0  0  0  0  0  0  0  0  0
   29.6800  -23.3800    0.0000 C   0  0  0  0  0  0  0  0  0  0  0  0
   29.2600  -22.0500    0.0000 C   0  0  0  0  0  0  0  0  0  0  0  0
   27.9300  -22.0500    0.0000 C   0  0  0  0  0  0  0  0  0  0  0  0
   28.5600  -25.5500    0.0000 C   0  0  0  0  0  0  0  0  0  0  0  0
   30.9400  -24.0800    0.0000 N   0  0  0  0  0  0  0  0  0  0  0  0
   30.5200  -21.2800    0.0000 N   0  0  0  0  0  0  0  0  0  0  0  0
   30.5200  -19.8800    0.0000 C   0  0  0  0  0  0  0  0  0  0  0  0
   31.7100  -19.1800    0.0000 N   0  0  0  0  0  0  0  0  0  0  0  0
   29.2600  -19.1800    0.0000 O   0  0  0  0  0  0  0  0  0  0  0  0
   32.9000  -19.8800    0.0000 C   0  0  0  0  0  0  0  0  0  0  0  0
   34.0900  -19.1800    0.0000 C   0  0  0  0  0  0  0  0  0  0  0  0
   35.2800  -19.8800    0.0000 N   0  0  0  0  0  0  0  0  0  0  0  0
   20.1600  -24.2900    0.0000 O   0  0  0  0  0  0  0  0  0  0  0  0
   19.9500  -21.1400    0.0000 N   0  0  0  0  0  0  0  0  0  0  0  0
   18.7600  -21.9100    0.0000 C   0  0  0  0  0  0  0  0  0  0  0  0
   17.5700  -21.1400    0.0000 C   0  0  0  0  0  0  0  0  0  0  0  0
   18.7600  -23.3100    0.0000 O   0  0  0  0  0  0  0  0  0  0  0  0
   17.5700  -19.7400    0.0000 N   0  0  0  0  0  0  0  0  0  0  0  0
   16.3100  -21.8400    0.0000 C   0  0  0  0  0  0  0  0  0  0  0  0
   15.1900  -21.0700    0.0000 N   0  0  0  0  0  0  0  0  0  0  0  0
   14.0700  -21.8400    0.0000 S   0  0  0  0  0  0  0  0  0  0  0  0
   14.4900  -23.1700    0.0000 C   0  0  0  0  0  0  0  0  0  0  0  0
   15.8900  -23.1700    0.0000 N   0  0  0  0  0  0  0  0  0  0  0  0
   13.7200  -24.2900    0.0000 N   0  0  0  0  0  0  0  0  0  0  0  0
   18.7600  -19.0400    0.0000 O   0  0  0  0  0  0  0  0  0  0  0  0
   18.7600  -17.6400    0.0000 C   0  0  0  0  0  0  0  0  0  0  0  0
   20.2300  -17.6400    0.0000 C   0  0  0  0  0  0  0  0  0  0  0  0
   17.3600  -17.6400    0.0000 C   0  0  0  0  0  0  0  0  0  0  0  0
   18.7600  -16.2400    0.0000 C   0  0  0  0  0  0  0  0  0  0  0  0
   20.9300  -18.8300    0.0000 O   0  0  0  0  0  0  0  0  0  0  0  0
   20.9300  -16.4500    0.0000 O   0  0  0  0  0  0  0  0  0  0  0  0
   35.7700  -24.7800    0.0000 S   0  0  0  0  0  0  0  0  0  0  0  0
   35.7700  -23.3800    0.0000 O   0  0  0  0  0  0  0  0  0  0  0  0
   35.7700  -26.1800    0.0000 O   0  0  0  0  0  0  0  0  0  0  0  0
   37.1700  -24.7800    0.0000 O   0  0  0  0  0  0  0  0  0  0  0  0
   34.3700  -24.7800    0.0000 O   0  0  0  0  0  0  0  0  0  0  0  0
   38.1102  -15.9197    0.0000 C   0  0  0  0  0  0  0  0  0  0  0  0
   38.1102  -17.3169    0.0000 C   0  0  0  0  0  0  0  0  0  0  0  0
   39.5076  -17.3169    0.0000 N   0  0  0  0  0  0  0  0  0  0  0  0
   39.5076  -15.9197    0.0000 C   0  0  0  0  0  0  0  0  0  0  0  0
   40.8363  -17.7486    0.0000 C   0  0  0  0  0  0  0  0  0  0  0  0
   41.6575  -16.6183    0.0000 C   0  0  0  0  0  0  0  0  0  0  0  0
   40.8363  -15.4879    0.0000 S   0  0  0  0  0  0  0  0  0  0  0  0
   42.6454  -17.6062    0.0000 C   0  0  0  0  0  0  0  0  0  0  0  0
   42.6454  -15.6304    0.0000 C   0  0  0  0  0  0  0  0  0  0  0  0
   41.2642  -19.0656    0.0000 C   0  0  0  0  0  0  0  0  0  0  0  0
   42.6615  -19.0656    0.0000 O   0  0  0  0  0  0  0  0  0  0  0  0
   40.4405  -20.1994    0.0000 O   0  0  0  0  0  0  0  0  0  0  0  0
   40.4754  -14.1411    0.0000 O   0  0  0  0  0  0  0  0  0  0  0  0
   41.8223  -14.5020    0.0000 O   0  0  0  0  0  0  0  0  0  0  0  0
   44.0417  -15.6304    0.0000 N   0  0  0  0  0  0  0  0  0  0  0  0
   44.8721  -16.7732    0.0000 C   0  0  0  0  0  0  0  0  0  0  0  0
   46.2155  -16.3367    0.0000 C   0  0  0  0  0  0  0  0  0  0  0  0
   46.2156  -14.9243    0.0000 N   0  0  0  0  0  0  0  0  0  0  0  0
   44.8722  -14.4877    0.0000 N   0  0  0  0  0  0  0  0  0  0  0  0
   36.8979  -18.0168    0.0000 O   0  0  0  0  0  0  0  0  0  0  0  0
   44.1700  -19.1100    0.0000 Na  0  0  0  0  0 15  0  0  0  0  0  0
  1  2  1  0
  2  3  1  0
  3  4  2  0
  4  5  1  0
  5  6  1  0
  1  6  1  1
  1  7  1  0
  7  8  1  0
  2  8  1  0
  3  9  1  0
  9 10  2  0
  9 11  1  0
  4 12  1  0
 12 13  1  0
 13 14  1  0
 14 15  1  0
 15 16  2  0
 16 17  1  0
 13 17  2  0
 14 18  1  0
 15 19  1  0
 20 16  1  0
 20 21  1  0
 21 22  1  0
 21 23  2  0
 22 24  1  0
 24 25  1  0
 25 26  1  0
  8 27  2  0
  7 28  1  1
 28 29  1  0
 29 30  1  0
 29 31  2  0
 30 32  2  0
 30 33  1  0
 33 34  2  0
 34 35  1  0
 35 36  1  0
 36 37  2  0
 33 37  1  0
 36 38  1  0
 32 39  1  0
 39 40  1  0
 40 41  1  0
 40 42  1  0
 40 43  1  0
 41 44  1  0
 41 45  2  0
 46 47  2  0
 46 48  2  0
 46 49  1  0
 46 50  1  0
 51 52  1  0
 52 53  1  0
 53 54  1  0
 54 51  1  1
 53 55  1  0
 55 56  1  0
 56 57  1  0
 54 57  1  0
 56 58  1  6
 56 59  1  0
 55 60  1  6
 60 61  1  0
 60 62  2  0
 57 63  2  0
 57 64  2  0
 59 65  1  0
 65 66  1  0
 66 67  2  0
 67 68  1  0
 68 69  2  0
 65 69  1  0
 52 70  2  0
M  CHG  4  13   1  50  -1  61  -1  71   1
M  END
