 
     RDKit          2D

 66 73  0  0  1  0  0  0  0  0999 V2000
   15.1431  -17.5925    0.0000 C   0  0  0  0  0  0  0  0  0  0  0  0
   15.1431  -18.9937    0.0000 C   0  0  0  0  0  0  0  0  0  0  0  0
   16.3342  -19.6944    0.0000 C   0  0  0  0  0  0  0  0  0  0  0  0
   17.5953  -18.9937    0.0000 C   0  0  0  0  0  0  0  0  0  0  0  0
   17.5953  -17.5925    0.0000 C   0  0  0  0  0  0  0  0  0  0  0  0
   16.3342  -16.8919    0.0000 C   0  0  0  0  0  0  0  0  0  0  0  0
   18.7864  -16.8919    0.0000 C   0  0  0  0  0  0  0  0  0  0  0  0
   20.0475  -17.5925    0.0000 C   0  0  0  0  0  0  0  0  0  0  0  0
   20.0475  -18.9937    0.0000 C   0  0  0  0  0  0  0  0  0  0  0  0
   21.2385  -19.6944    0.0000 C   0  0  0  0  0  0  0  0  0  0  0  0
   22.4296  -18.9937    0.0000 C   0  0  0  0  0  0  0  0  0  0  0  0
   22.4296  -17.5925    0.0000 C   0  0  0  0  0  0  0  0  0  0  0  0
   21.2385  -16.8919    0.0000 C   0  0  0  0  0  0  0  0  0  0  0  0
   18.7864  -19.6944    0.0000 Cl  0  0  0  0  0  0  0  0  0  0  0  0
   23.6207  -19.6944    0.0000 O   0  0  0  0  0  0  0  0  0  0  0  0
   24.8117  -18.9937    0.0000 C   0  0  0  0  0  0  0  0  0  0  0  0
   13.9521  -16.8919    0.0000 C   0  0  0  0  0  0  0  0  0  0  0  0
   13.9521  -15.4906    0.0000 O   0  0  0  0  0  0  0  0  0  0  0  0
   12.6909  -14.7900    0.0000 C   0  0  0  0  0  0  0  0  0  0  0  0
   11.4999  -15.4906    0.0000 C   0  0  0  0  0  0  0  0  0  0  0  0
   11.4999  -16.8919    0.0000 C   0  0  0  0  0  0  0  0  0  0  0  0
   12.6909  -17.5925    0.0000 C   0  0  0  0  0  0  0  0  0  0  0  0
   12.6909  -18.9937    0.0000 O   0  0  0  0  0  0  0  0  0  0  0  0
   10.3088  -14.7900    0.0000 O   0  0  0  0  0  0  0  0  0  0  0  0
   10.3088  -17.5925    0.0000 O   0  0  0  0  0  0  0  0  0  0  0  0
   12.6909  -13.3888    0.0000 C   0  0  0  0  0  0  0  0  0  0  0  0
   13.9521  -12.6881    0.0000 O   0  0  0  0  0  0  0  0  0  0  0  0
   26.0964  -19.5532    0.0000 C   0  0  0  0  0  0  0  0  0  0  0  0
   27.0256  -18.5043    0.0000 O   0  0  0  0  0  0  0  0  0  0  0  0
   26.3151  -17.2965    0.0000 C   0  0  0  0  0  0  0  0  0  0  0  0
   24.9468  -17.5990    0.0000 C   0  0  0  0  0  0  0  0  0  0  0  0
   15.6073  -25.1957    0.0000 C   0  0  0  0  0  0  0  0  0  0  0  0
   15.6073  -26.5954    0.0000 C   0  0  0  0  0  0  0  0  0  0  0  0
   16.7971  -27.2953    0.0000 C   0  0  0  0  0  0  0  0  0  0  0  0
   18.1269  -26.5954    0.0000 C   0  0  0  0  0  0  0  0  0  0  0  0
   18.1269  -25.1957    0.0000 C   0  0  0  0  0  0  0  0  0  0  0  0
   16.7971  -24.4958    0.0000 C   0  0  0  0  0  0  0  0  0  0  0  0
   19.3167  -27.2953    0.0000 C   0  0  0  0  0  0  0  0  0  0  0  0
   20.5065  -26.5954    0.0000 N   0  0  0  0  0  0  0  0  0  0  0  0
   20.5065  -25.1957    0.0000 C   0  0  0  0  0  0  0  0  0  0  0  0
   19.3167  -24.4958    0.0000 N   0  0  0  0  0  0  0  0  0  0  0  0
   19.3167  -28.6950    0.0000 C   0  0  0  0  0  0  0  0  0  0  0  0
   21.6963  -24.4958    0.0000 C   0  0  0  0  0  0  0  0  0  0  0  0
   22.8860  -25.1957    0.0000 N   0  0  0  0  0  0  0  0  0  0  0  0
   22.8860  -26.5954    0.0000 C   0  0  0  0  0  0  0  0  0  0  0  0
   24.1458  -27.2953    0.0000 N   0  0  0  0  0  0  0  0  0  0  0  0
   25.3356  -26.5954    0.0000 C   0  0  0  0  0  0  0  0  0  0  0  0
   25.3356  -25.1957    0.0000 C   0  0  0  0  0  0  0  0  0  0  0  0
   24.1458  -24.4958    0.0000 C   0  0  0  0  0  0  0  0  0  0  0  0
   24.1458  -23.0960    0.0000 O   0  0  0  0  0  0  0  0  0  0  0  0
   21.6963  -27.2953    0.0000 O   0  0  0  0  0  0  0  0  0  0  0  0
   24.1458  -28.6950    0.0000 C   0  0  0  0  0  0  0  0  0  0  0  0
   26.6654  -27.0153    0.0000 N   0  0  0  0  0  0  0  0  0  0  0  0
   27.5053  -25.8955    0.0000 C   0  0  0  0  0  0  0  0  0  0  0  0
   26.6654  -24.7757    0.0000 N   0  0  0  0  0  0  0  0  0  0  0  0
   28.9050  -25.8955    0.0000 N   0  0  0  0  0  0  0  0  0  0  0  0
   29.6049  -27.0853    0.0000 C   0  0  0  0  0  0  0  0  0  0  0  0
   31.0046  -27.0853    0.0000 C   0  0  0  0  0  0  0  0  0  0  0  0
   31.7045  -25.8955    0.0000 C   0  0  0  0  0  0  0  0  0  0  0  0
   31.0046  -24.7057    0.0000 C   0  0  0  0  0  0  0  0  0  0  0  0
   29.6049  -24.7057    0.0000 C   0  0  0  0  0  0  0  0  0  0  0  0
   31.7045  -28.3451    0.0000 N   0  0  0  0  0  0  0  0  0  0  0  0
   27.3653  -23.5859    0.0000 C   0  0  0  0  0  0  0  0  0  0  0  0
   28.7650  -23.5859    0.0000 C   0  0  0  0  0  0  0  0  0  0  0  0
   30.1648  -23.5859    0.0000 C   0  0  0  0  0  0  0  0  0  0  0  0
   31.5646  -23.5859    0.0000 C   0  0  0  0  0  0  0  0  0  0  0  0
  1  2  2  0
  2  3  1  0
  3  4  2  0
  4  5  1  0
  5  6  2  0
  1  6  1  0
  5  7  1  0
  7  8  1  0
  8  9  2  0
  9 10  1  0
 10 11  2  0
 11 12  1  0
 12 13  2  0
  8 13  1  0
  4 14  1  0
 11 15  1  0
 16 15  1  1
 17  1  1  1
 17 18  1  0
 18 19  1  0
 19 20  1  0
 21 20  1  0
 21 22  1  0
 22 17  1  0
 22 23  1  6
 20 24  1  6
 21 25  1  1
 19 26  1  1
 26 27  1  0
 16 28  1  0
 28 29  1  0
 29 30  1  0
 30 31  1  0
 16 31  1  0
 32 33  2  0
 33 34  1  0
 34 35  2  0
 35 36  1  0
 36 37  2  0
 32 37  1  0
 35 38  1  0
 38 39  2  0
 39 40  1  0
 40 41  2  0
 36 41  1  0
 38 42  1  0
 40 43  1  0
 43 44  1  0
 44 45  1  0
 45 46  1  0
 46 47  1  0
 47 48  2  0
 48 49  1  0
 44 49  1  0
 49 50  2  0
 45 51  2  0
 46 52  1  0
 47 53  1  0
 53 54  2  0
 54 55  1  0
 48 55  1  0
 54 56  1  0
 56 57  1  0
 57 58  1  0
 58 59  1  0
 59 60  1  0
 60 61  1  0
 56 61  1  0
 58 62  1  1
 63 64  1  0
 63 55  1  0
 64 65  3  0
 65 66  1  0
M  END
