 
     RDKit          2D

 51 54  0  0  0  0  0  0  0  0999 V2000
   21.5859  -16.5853    0.0000 Cl  0  0  0  0  0  0  0  0  0  0  0  0
   12.8800  -15.9600    0.0000 C   0  0  0  0  0  0  0  0  0  0  0  0
   12.8800  -17.3600    0.0000 C   0  0  0  0  0  0  0  0  0  0  0  0
   14.0700  -18.0600    0.0000 C   0  0  0  0  0  0  0  0  0  0  0  0
   15.3300  -17.3600    0.0000 C   0  0  0  0  0  0  0  0  0  0  0  0
   15.3300  -15.9600    0.0000 C   0  0  0  0  0  0  0  0  0  0  0  0
   14.0700  -15.2600    0.0000 C   0  0  0  0  0  0  0  0  0  0  0  0
   16.5200  -18.0600    0.0000 Cl  0  0  0  0  0  0  0  0  0  0  0  0
   17.7100  -17.3600    0.0000 N   0  0  0  0  0  0  0  0  0  0  0  0
   17.7100  -15.9600    0.0000 C   0  0  0  0  0  0  0  0  0  0  0  0
   16.5200  -15.2600    0.0000 N   0  0  0  0  0  0  0  0  0  0  0  0
   19.0400  -17.7800    0.0000 C   0  0  0  0  0  0  0  0  0  0  0  0
   19.8800  -16.6600    0.0000 C   0  0  0  0  0  0  0  0  0  0  0  0
   19.0400  -15.5400    0.0000 N   0  0  0  0  0  0  0  0  0  0  0  0
   14.0700  -13.8600    0.0000 Cl  0  0  0  0  0  0  0  0  0  0  0  0
    8.2600  -20.5100    0.0000 C   0  0  0  0  0  0  0  0  0  0  0  0
    8.2600  -21.9100    0.0000 C   0  0  0  0  0  0  0  0  0  0  0  0
    9.4724  -22.6100    0.0000 C   0  0  0  0  0  0  0  0  0  0  0  0
   10.6849  -21.9100    0.0000 C   0  0  0  0  0  0  0  0  0  0  0  0
   10.6849  -20.5100    0.0000 C   0  0  0  0  0  0  0  0  0  0  0  0
    9.4724  -19.8100    0.0000 C   0  0  0  0  0  0  0  0  0  0  0  0
   11.8973  -22.6100    0.0000 Cl  0  0  0  0  0  0  0  0  0  0  0  0
   13.1097  -21.9100    0.0000 N   0  0  0  0  0  0  0  0  0  0  0  0
   13.1097  -20.5100    0.0000 C   0  0  0  0  0  0  0  0  0  0  0  0
   11.8973  -19.8100    0.0000 N   0  0  0  0  0  0  0  0  0  0  0  0
   14.4412  -22.3426    0.0000 C   0  0  0  0  0  0  0  0  0  0  0  0
   15.2641  -21.2100    0.0000 C   0  0  0  0  0  0  0  0  0  0  0  0
   14.4412  -20.0774    0.0000 N   0  0  0  0  0  0  0  0  0  0  0  0
    9.4724  -18.4102    0.0000 Cl  0  0  0  0  0  0  0  0  0  0  0  0
    7.3500  -17.0800    0.0000 C   0  0  0  0  0  0  0  0  0  0  0  0
    7.3500  -18.4800    0.0000 C   0  0  0  0  0  0  0  0  0  0  0  0
    8.5624  -19.1800    0.0000 C   0  0  0  0  0  0  0  0  0  0  0  0
    9.7749  -18.4800    0.0000 C   0  0  0  0  0  0  0  0  0  0  0  0
    9.7749  -17.0800    0.0000 C   0  0  0  0  0  0  0  0  0  0  0  0
    8.5624  -16.3800    0.0000 C   0  0  0  0  0  0  0  0  0  0  0  0
   12.1997  -18.4800    0.0000 C   0  0  0  0  0  0  0  0  0  0  0  0
   12.1997  -17.0800    0.0000 C   0  0  0  0  0  0  0  0  0  0  0  0
   10.9873  -16.3800    0.0000 C   0  0  0  0  0  0  0  0  0  0  0  0
   13.4122  -19.1800    0.0000 C   0  0  0  0  0  0  0  0  0  0  0  0
   14.6246  -18.4800    0.0000 C   0  0  0  0  0  0  0  0  0  0  0  0
   14.6246  -17.0800    0.0000 C   0  0  0  0  0  0  0  0  0  0  0  0
   13.4122  -16.3800    0.0000 C   0  0  0  0  0  0  0  0  0  0  0  0
   15.8411  -19.1823    0.0000 Cl  0  0  0  0  0  0  0  0  0  0  0  0
   15.8411  -16.3777    0.0000 S   0  0  0  0  0  0  0  0  0  0  0  0
   17.0535  -15.6777    0.0000 N   0  0  0  0  0  0  0  0  0  0  0  0
   15.1370  -15.1579    0.0000 O   0  0  0  0  0  0  0  0  0  0  0  0
   16.5367  -17.5827    0.0000 O   0  0  0  0  0  0  0  0  0  0  0  0
   10.4862  -15.0106    0.0000 N   0  0  0  0  0  0  0  0  0  0  0  0
    9.0239  -15.0042    0.0000 C   0  0  0  0  0  0  0  0  0  0  0  0
   12.1997  -15.6800    0.0000 O   0  0  0  0  0  0  0  0  0  0  0  0
    8.0160  -14.0147    0.0000 O   0  0  0  0  0  0  0  0  0  0  0  0
  2  3  2  0
  3  4  1  0
  4  5  2  0
  5  6  1  0
  6  7  2  0
  2  7  1  0
  5  8  1  0
  9 10  1  0
 10 11  2  3
  6 11  1  0
  9 12  1  0
 12 13  1  0
 13 14  1  0
 10 14  1  0
  7 15  1  0
 16 17  2  0
 17 18  1  0
 18 19  2  0
 19 20  1  0
 20 21  2  0
 16 21  1  0
 19 22  1  0
 23 24  1  0
 24 25  2  3
 20 25  1  0
 23 26  1  0
 26 27  1  0
 27 28  1  0
 24 28  1  0
 21 29  1  0
 30 31  2  0
 31 32  1  0
 32 33  2  0
 33 34  1  0
 34 35  2  0
 30 35  1  0
 36 37  2  0
 37 38  1  0
 34 38  1  0
 36 39  1  0
 39 40  2  0
 40 41  1  0
 41 42  2  0
 37 42  1  0
 40 43  1  0
 41 44  1  0
 44 45  1  0
 44 46  2  0
 44 47  2  0
 38 48  1  0
 48 49  1  0
 49 35  1  0
 38 50  1  0
 49 51  2  0
M  END
