 
     RDKit          2D

 81 80  0  0  1  0  0  0  0  0999 V2000
   24.2958  -19.6721    0.0000 C   0  0  0  0  0  0  0  0  0  0  0  0
   24.2958  -21.0723    0.0000 C   0  0  0  0  0  0  0  0  0  0  0  0
   25.5083  -21.7724    0.0000 C   0  0  0  0  0  0  0  0  0  0  0  0
   26.7210  -21.0723    0.0000 C   0  0  0  0  0  0  0  0  0  0  0  0
   26.7210  -19.6721    0.0000 C   0  0  0  0  0  0  0  0  0  0  0  0
   25.5083  -18.9720    0.0000 C   0  0  0  0  0  0  0  0  0  0  0  0
   27.9523  -18.9610    0.0000 C   0  0  0  0  0  0  0  0  0  0  0  0
   29.1576  -19.6568    0.0000 C   0  0  0  0  0  0  0  0  0  0  0  0
   29.1580  -21.0719    0.0000 C   0  0  0  0  0  0  0  0  0  0  0  0
   30.3708  -21.7717    0.0000 C   0  0  0  0  0  0  0  0  0  0  0  0
   31.5833  -21.0712    0.0000 C   0  0  0  0  0  0  0  0  0  0  0  0
   31.5828  -19.6560    0.0000 C   0  0  0  0  0  0  0  0  0  0  0  0
   30.3700  -18.9563    0.0000 C   0  0  0  0  0  0  0  0  0  0  0  0
   27.9523  -21.7834    0.0000 Cl  0  0  0  0  0  0  0  0  0  0  0  0
   32.7916  -21.7684    0.0000 O   0  0  0  0  0  0  0  0  0  0  0  0
   33.9837  -21.0796    0.0000 C   0  0  0  0  0  0  0  0  0  0  0  0
   35.1734  -21.7660    0.0000 C   0  0  0  0  0  0  0  0  0  0  0  0
   23.0832  -18.9720    0.0000 C   0  0  0  0  0  0  0  0  0  0  0  0
   23.0832  -17.5720    0.0000 O   0  0  0  0  0  0  0  0  0  0  0  0
   21.8706  -16.8719    0.0000 C   0  0  0  0  0  0  0  0  0  0  0  0
   20.6580  -17.5720    0.0000 C   0  0  0  0  0  0  0  0  0  0  0  0
   20.6580  -18.9720    0.0000 C   0  0  0  0  0  0  0  0  0  0  0  0
   21.8706  -19.6721    0.0000 C   0  0  0  0  0  0  0  0  0  0  0  0
   21.8706  -21.0721    0.0000 O   0  0  0  0  0  0  0  0  0  0  0  0
   19.4433  -16.8707    0.0000 O   0  0  0  0  0  0  0  0  0  0  0  0
   19.4433  -19.6733    0.0000 O   0  0  0  0  0  0  0  0  0  0  0  0
   21.8706  -15.4718    0.0000 C   0  0  0  0  0  0  0  0  0  0  0  0
   23.0661  -14.7814    0.0000 O   0  0  0  0  0  0  0  0  0  0  0  0
    8.1200  -20.5100    0.0000 C   0  0  0  0  0  0  0  0  0  0  0  0
    8.1200  -21.9100    0.0000 C   0  0  0  0  0  0  0  0  0  0  0  0
    9.3100  -22.6100    0.0000 C   0  0  0  0  0  0  0  0  0  0  0  0
   10.5700  -21.9100    0.0000 C   0  0  0  0  0  0  0  0  0  0  0  0
   10.5700  -20.5100    0.0000 C   0  0  0  0  0  0  0  0  0  0  0  0
    9.3100  -19.8100    0.0000 C   0  0  0  0  0  0  0  0  0  0  0  0
   11.7600  -19.8100    0.0000 C   0  0  0  0  0  0  0  0  0  0  0  0
   13.0200  -20.5100    0.0000 C   0  0  0  0  0  0  0  0  0  0  0  0
   13.0200  -21.9100    0.0000 C   0  0  0  0  0  0  0  0  0  0  0  0
   14.2100  -22.6100    0.0000 C   0  0  0  0  0  0  0  0  0  0  0  0
   15.4000  -21.9100    0.0000 C   0  0  0  0  0  0  0  0  0  0  0  0
   15.4000  -20.5100    0.0000 C   0  0  0  0  0  0  0  0  0  0  0  0
   14.2100  -19.8100    0.0000 C   0  0  0  0  0  0  0  0  0  0  0  0
   11.7600  -22.6100    0.0000 Cl  0  0  0  0  0  0  0  0  0  0  0  0
   16.5900  -22.6100    0.0000 O   0  0  0  0  0  0  0  0  0  0  0  0
   17.7800  -21.9100    0.0000 C   0  0  0  0  0  0  0  0  0  0  0  0
   18.9700  -22.6100    0.0000 C   0  0  0  0  0  0  0  0  0  0  0  0
    6.9300  -19.8100    0.0000 C   0  0  0  0  0  0  0  0  0  0  0  0
    6.9300  -18.4100    0.0000 O   0  0  0  0  0  0  0  0  0  0  0  0
    5.6700  -17.7100    0.0000 C   0  0  0  0  0  0  0  0  0  0  0  0
    4.4800  -18.4100    0.0000 C   0  0  0  0  0  0  0  0  0  0  0  0
    4.4800  -19.8100    0.0000 C   0  0  0  0  0  0  0  0  0  0  0  0
    5.6700  -20.5100    0.0000 C   0  0  0  0  0  0  0  0  0  0  0  0
    5.6700  -21.9100    0.0000 O   0  0  0  0  0  0  0  0  0  0  0  0
    3.2900  -17.7100    0.0000 O   0  0  0  0  0  0  0  0  0  0  0  0
    3.2900  -20.5100    0.0000 O   0  0  0  0  0  0  0  0  0  0  0  0
    5.6700  -16.3100    0.0000 C   0  0  0  0  0  0  0  0  0  0  0  0
    6.9300  -15.6100    0.0000 O   0  0  0  0  0  0  0  0  0  0  0  0
   15.9600  -15.8200    0.0000 C   0  0  0  0  0  0  0  0  0  0  0  0
   17.1724  -16.5200    0.0000 C   0  0  0  0  0  0  0  0  0  0  0  0
   18.3679  -15.8296    0.0000 C   0  0  0  0  0  0  0  0  0  0  0  0
   17.1725  -17.9198    0.0000 O   0  0  0  0  0  0  0  0  0  0  0  0
   19.5553  -16.5151    0.0000 O   0  0  0  0  0  0  0  0  0  0  0  0
   20.7200  -20.0200    0.0000 O   0  0  0  0  0  0  0  0  0  0  0  0
   25.2991  -19.3605    0.0000 C   0  0  0  0  0  0  0  0  0  0  0  0
   24.0935  -18.6673    0.0000 N   0  0  0  0  0  0  0  0  0  0  0  0
   26.5163  -18.6673    0.0000 N   0  0  0  0  0  0  0  0  0  0  0  0
   25.2991  -20.7640    0.0000 N   0  0  0  0  0  0  0  0  0  0  0  0
   22.8764  -19.3605    0.0000 C   0  0  0  0  0  0  0  0  0  0  0  0
   27.7278  -19.3605    0.0000 C   0  0  0  0  0  0  0  0  0  0  0  0
   26.5163  -17.2579    0.0000 C   0  0  0  0  0  0  0  0  0  0  0  0
   21.6649  -18.6673    0.0000 N   0  0  0  0  0  0  0  0  0  0  0  0
   22.8764  -20.7640    0.0000 N   0  0  0  0  0  0  0  0  0  0  0  0
   31.1135  -18.2132    0.0000 Cl  0  0  0  0  0  0  0  0  0  0  0  0
   26.2960  -19.4016    0.0000 C   0  0  0  0  0  0  0  0  0  0  0  0
   25.0898  -18.7081    0.0000 N   0  0  0  0  0  0  0  0  0  0  0  0
   27.5139  -18.7081    0.0000 N   0  0  0  0  0  0  0  0  0  0  0  0
   26.2960  -20.8058    0.0000 N   0  0  0  0  0  0  0  0  0  0  0  0
   23.8721  -19.4016    0.0000 C   0  0  0  0  0  0  0  0  0  0  0  0
   28.7260  -19.4016    0.0000 C   0  0  0  0  0  0  0  0  0  0  0  0
   27.5139  -17.3038    0.0000 C   0  0  0  0  0  0  0  0  0  0  0  0
   22.6600  -18.7081    0.0000 N   0  0  0  0  0  0  0  0  0  0  0  0
   23.8721  -20.8058    0.0000 N   0  0  0  0  0  0  0  0  0  0  0  0
  1  2  2  0
  2  3  1  0
  3  4  2  0
  4  5  1  0
  5  6  2  0
  1  6  1  0
  5  7  1  0
  7  8  1  0
  8  9  2  0
  9 10  1  0
 10 11  2  0
 11 12  1  0
 12 13  2  0
  8 13  1  0
  4 14  1  0
 11 15  1  0
 15 16  1  0
 16 17  1  0
 18  1  1  1
 18 19  1  0
 19 20  1  0
 20 21  1  0
 21 22  1  0
 22 23  1  0
 18 23  1  0
 23 24  1  6
 21 25  1  6
 22 26  1  1
 20 27  1  1
 27 28  1  0
 29 30  2  0
 30 31  1  0
 31 32  2  0
 32 33  1  0
 33 34  2  0
 29 34  1  0
 33 35  1  0
 35 36  1  0
 36 37  2  0
 37 38  1  0
 38 39  2  0
 39 40  1  0
 40 41  2  0
 36 41  1  0
 32 42  1  0
 39 43  1  0
 43 44  1  0
 44 45  1  0
 46 29  1  1
 46 47  1  0
 47 48  1  0
 48 49  1  0
 49 50  1  0
 50 51  1  0
 46 51  1  0
 51 52  1  6
 49 53  1  6
 50 54  1  1
 48 55  1  1
 55 56  1  0
 57 58  1  0
 58 59  1  0
 58 60  1  0
 59 61  1  0
 63 64  1  0
 63 65  1  0
 63 66  2  0
 64 67  1  0
 65 68  1  0
 65 69  1  0
 67 70  1  0
 67 71  2  0
 73 74  1  0
 73 75  1  0
 73 76  2  0
 74 77  1  0
 75 78  1  0
 75 79  1  0
 77 80  1  0
 77 81  2  0
M  END
