 
     RDKit          2D

101112  0  0  1  0  0  0  0  0999 V2000
   19.0400  -16.7300    0.0000 C   0  0  0  0  0  0  0  0  0  0  0  0
   19.4600  -18.1300    0.0000 C   0  0  0  0  0  0  0  0  0  0  0  0
   20.8600  -18.1300    0.0000 C   0  0  0  0  0  0  0  0  0  0  0  0
   21.2800  -16.8000    0.0000 C   0  0  0  0  0  0  0  0  0  0  0  0
   20.1600  -15.9600    0.0000 C   0  0  0  0  0  0  0  0  0  0  0  0
   21.7000  -19.1800    0.0000 C   0  0  0  0  0  0  0  0  0  0  0  0
   23.1000  -18.9700    0.0000 C   0  0  0  0  0  0  0  0  0  0  0  0
   23.5900  -17.6400    0.0000 C   0  0  0  0  0  0  0  0  0  0  0  0
   22.6800  -16.5900    0.0000 C   0  0  0  0  0  0  0  0  0  0  0  0
   17.6400  -16.4500    0.0000 C   0  0  0  0  0  0  0  0  0  0  0  0
   16.7300  -17.4300    0.0000 C   0  0  0  0  0  0  0  0  0  0  0  0
   17.0800  -18.7600    0.0000 C   0  0  0  0  0  0  0  0  0  0  0  0
   18.4800  -19.1100    0.0000 C   0  0  0  0  0  0  0  0  0  0  0  0
   21.2100  -14.9800    0.0000 F   0  0  0  0  0  0  0  0  0  0  0  0
   19.1800  -14.9800    0.0000 F   0  0  0  0  0  0  0  0  0  0  0  0
   24.7800  -15.5400    0.0000 C   0  0  0  0  0  0  0  0  0  0  0  0
   24.7800  -16.9400    0.0000 C   0  0  0  0  0  0  0  0  0  0  0  0
   25.9700  -17.6400    0.0000 C   0  0  0  0  0  0  0  0  0  0  0  0
   27.2300  -16.9400    0.0000 C   0  0  0  0  0  0  0  0  0  0  0  0
   27.2300  -15.5400    0.0000 C   0  0  0  0  0  0  0  0  0  0  0  0
   25.9700  -14.8400    0.0000 C   0  0  0  0  0  0  0  0  0  0  0  0
   28.5600  -17.3600    0.0000 N   0  0  0  0  0  0  0  0  0  0  0  0
   29.3300  -16.2400    0.0000 C   0  0  0  0  0  0  0  0  0  0  0  0
   28.5600  -15.1200    0.0000 N   0  0  0  0  0  0  0  0  0  0  0  0
   30.7300  -16.2400    0.0000 C   0  0  0  0  0  0  0  0  0  0  0  0
   31.4300  -17.4300    0.0000 C   0  0  0  0  0  0  0  0  0  0  0  0
   32.8300  -17.4300    0.0000 C   0  0  0  0  0  0  0  0  0  0  0  0
   33.5300  -16.2400    0.0000 C   0  0  0  0  0  0  0  0  0  0  0  0
   32.8300  -15.0500    0.0000 C   0  0  0  0  0  0  0  0  0  0  0  0
   31.4300  -15.0500    0.0000 N   0  0  0  0  0  0  0  0  0  0  0  0
   30.7300  -13.8600    0.0000 C   0  0  0  0  0  0  0  0  0  0  0  0
   29.3300  -13.8600    0.0000 O   0  0  0  0  0  0  0  0  0  0  0  0
   31.4300  -12.6700    0.0000 C   0  0  0  0  0  0  0  0  0  0  0  0
   32.8300  -12.6700    0.0000 C   0  0  0  0  0  0  0  0  0  0  0  0
   30.7300  -11.4800    0.0000 N   0  0  0  0  0  0  0  0  0  0  0  0
   33.5300  -13.8600    0.0000 C   0  0  0  0  0  0  0  0  0  0  0  0
   33.5300  -11.4800    0.0000 C   0  0  0  0  0  0  0  0  0  0  0  0
   29.3300  -11.4800    0.0000 C   0  0  0  0  0  0  0  0  0  0  0  0
   28.6300  -10.2900    0.0000 O   0  0  0  0  0  0  0  0  0  0  0  0
   28.6300  -12.6700    0.0000 O   0  0  0  0  0  0  0  0  0  0  0  0
   27.2300  -10.2900    0.0000 C   0  0  0  0  0  0  0  0  0  0  0  0
   31.6400  -15.9600    0.0000 C   0  0  0  0  0  0  0  0  0  0  0  0
   13.5800  -15.6800    0.0000 N   0  0  0  0  0  0  0  0  0  0  0  0
   13.1600  -17.0100    0.0000 C   0  0  0  0  0  0  0  0  0  0  0  0
   14.2800  -17.8500    0.0000 N   0  0  0  0  0  0  0  0  0  0  0  0
   15.4000  -17.0100    0.0000 C   0  0  0  0  0  0  0  0  0  0  0  0
   14.9800  -15.6800    0.0000 C   0  0  0  0  0  0  0  0  0  0  0  0
   11.8300  -17.4300    0.0000 C   0  0  0  0  0  0  0  0  0  0  0  0
   10.5000  -16.9400    0.0000 C   0  0  0  0  0  0  0  0  0  0  0  0
    9.6600  -18.0600    0.0000 C   0  0  0  0  0  0  0  0  0  0  0  0
   10.5000  -19.2500    0.0000 C   0  0  0  0  0  0  0  0  0  0  0  0
   11.8300  -18.8300    0.0000 N   0  0  0  0  0  0  0  0  0  0  0  0
   12.9500  -19.6700    0.0000 C   0  0  0  0  0  0  0  0  0  0  0  0
   14.2100  -19.1100    0.0000 O   0  0  0  0  0  0  0  0  0  0  0  0
   12.9500  -21.0700    0.0000 C   0  0  0  0  0  0  0  0  0  0  0  0
   11.7600  -21.7700    0.0000 C   0  0  0  0  0  0  0  0  0  0  0  0
   10.5700  -21.0700    0.0000 C   0  0  0  0  0  0  0  0  0  0  0  0
   11.7600  -23.1700    0.0000 C   0  0  0  0  0  0  0  0  0  0  0  0
   14.1400  -21.7700    0.0000 N   0  0  0  0  0  0  0  0  0  0  0  0
   15.4000  -21.0700    0.0000 C   0  0  0  0  0  0  0  0  0  0  0  0
   16.5900  -21.8400    0.0000 O   0  0  0  0  0  0  0  0  0  0  0  0
   15.4000  -19.6700    0.0000 O   0  0  0  0  0  0  0  0  0  0  0  0
   17.7800  -21.1400    0.0000 C   0  0  0  0  0  0  0  0  0  0  0  0
    8.4700  -18.8300    0.0000 C   0  0  0  0  0  0  0  0  0  0  0  0
    8.4700  -17.4300    0.0000 C   0  0  0  0  0  0  0  0  0  0  0  0
    9.2183  -16.9828    0.0000 C   0  0  0  0  0  0  0  0  0  0  0  0
   10.4121  -17.6720    0.0000 C   0  0  0  0  0  0  0  0  0  0  0  0
   11.6059  -16.9828    0.0000 O   0  0  0  0  0  0  0  0  0  0  0  0
   12.7996  -17.6720    0.0000 C   0  0  0  0  0  0  0  0  0  0  0  0
   13.9933  -16.9828    0.0000 C   0  0  0  0  0  0  0  0  0  0  0  0
   15.1872  -17.6720    0.0000 N   0  0  0  0  0  0  0  0  0  0  0  0
   10.4121  -19.0502    0.0000 C   0  0  0  0  0  0  0  0  0  0  0  0
   12.7996  -19.0504    0.0000 O   0  0  0  0  0  0  0  0  0  0  0  0
   13.9933  -15.6045    0.0000 C   0  0  0  0  0  0  0  0  0  0  0  0
   20.6947  -17.5762    0.0000 C   0  0  0  0  0  0  0  0  0  0  0  0
   21.1222  -18.9240    0.0000 C   0  0  0  0  0  0  0  0  0  0  0  0
   22.5361  -18.9339    0.0000 C   0  0  0  0  0  0  0  0  0  0  0  0
   22.9826  -17.5921    0.0000 C   0  0  0  0  0  0  0  0  0  0  0  0
   21.8444  -16.7531    0.0000 O   0  0  0  0  0  0  0  0  0  0  0  0
   16.9323  -16.9828    0.0000 P   0  0  0  0  0  0  0  0  0  0  0  0
   15.7425  -16.2958    0.0000 O   0  0  0  0  0  0  0  0  0  0  0  0
   18.1300  -16.2913    0.0000 O   0  0  0  0  0  0  0  0  0  0  0  0
   18.1320  -14.9154    0.0000 C   0  0  0  0  0  0  0  0  0  0  0  0
   19.3096  -14.2375    0.0000 C   0  0  0  0  0  0  0  0  0  0  0  0
   19.3114  -12.8591    0.0000 C   0  0  0  0  0  0  0  0  0  0  0  0
   18.1186  -12.1683    0.0000 C   0  0  0  0  0  0  0  0  0  0  0  0
   16.9410  -12.8461    0.0000 C   0  0  0  0  0  0  0  0  0  0  0  0
   16.9392  -14.2245    0.0000 C   0  0  0  0  0  0  0  0  0  0  0  0
   18.3120  -17.6964    0.0000 O   0  0  0  0  0  0  0  0  0  0  0  0
   19.4866  -16.9441    0.0000 C   0  0  0  0  0  0  0  0  0  0  0  0
   20.3166  -20.0168    0.0000 O   0  0  0  0  0  0  0  0  0  0  0  0
   23.8864  -19.4877    0.0000 C   0  0  0  0  0  0  0  0  0  0  0  0
   22.1827  -20.1470    0.0000 F   0  0  0  0  0  0  0  0  0  0  0  0
   24.2889  -17.1603    0.0000 N   0  0  0  0  0  0  0  0  0  0  0  0
   25.4710  -17.8949    0.0000 C   0  0  0  0  0  0  0  0  0  0  0  0
   26.6865  -17.2447    0.0000 C   0  0  0  0  0  0  0  0  0  0  0  0
   26.7312  -15.8671    0.0000 C   0  0  0  0  0  0  0  0  0  0  0  0
   25.5490  -15.1324    0.0000 N   0  0  0  0  0  0  0  0  0  0  0  0
   24.3335  -15.7825    0.0000 C   0  0  0  0  0  0  0  0  0  0  0  0
   27.9599  -15.2099    0.0000 O   0  0  0  0  0  0  0  0  0  0  0  0
   23.1649  -15.0563    0.0000 O   0  0  0  0  0  0  0  0  0  0  0  0
  1  2  2  0
  2  3  1  0
  3  4  2  0
  4  5  1  0
  1  5  1  0
  3  6  1  0
  6  7  2  0
  7  8  1  0
  8  9  2  0
  4  9  1  0
  1 10  1  0
 10 11  2  0
 11 12  1  0
 12 13  2  0
  2 13  1  0
  5 14  1  0
  5 15  1  0
 16 17  2  0
 17 18  1  0
 18 19  2  0
 19 20  1  0
 20 21  2  0
 16 21  1  0
 19 22  1  0
 22 23  2  0
 23 24  1  0
 20 24  1  0
 25 23  1  1
 25 26  1  0
 26 27  1  6
 27 28  1  0
 29 28  1  6
 29 30  1  0
 25 30  1  0
 30 31  1  0
 31 32  2  0
 33 31  1  0
 33 34  1  0
 33 35  1  1
 34 36  1  0
 34 37  1  0
 35 38  1  0
 38 39  1  0
 38 40  2  0
 39 41  1  0
 26 42  1  0
 29 42  1  0
 17  8  1  0
 43 44  1  0
 44 45  2  0
 45 46  1  0
 46 47  2  0
 43 47  1  0
 46 11  1  0
 48 44  1  1
 48 49  1  0
 49 50  1  0
 50 51  1  0
 51 52  1  0
 48 52  1  0
 52 53  1  0
 53 54  2  0
 55 53  1  0
 55 56  1  0
 56 57  1  0
 56 58  1  0
 55 59  1  1
 59 60  1  0
 60 61  1  0
 60 62  2  0
 61 63  1  0
 64 50  1  0
 65 64  1  0
 50 65  1  0
 66 67  1  0
 67 68  1  0
 68 69  1  0
 69 70  1  0
 70 71  1  0
 67 72  1  0
 69 73  2  0
 70 74  1  6
 75 76  1  0
 76 77  1  0
 77 78  1  0
 78 79  1  0
 75 79  1  0
 80 81  2  0
 80 82  1  0
 82 83  1  0
 83 84  2  0
 84 85  1  0
 85 86  2  0
 86 87  1  0
 87 88  2  0
 83 88  1  0
 80 89  1  0
 89 90  1  0
 75 90  1  1
 76 91  1  6
 77 92  1  1
 77 93  1  0
 78 94  1  1
 94 95  1  0
 95 96  2  0
 96 97  1  0
 97 98  1  0
 98 99  1  0
 94 99  1  0
 97100  2  0
 99101  2  0
 80 71  1  1
M  END
