 
     RDKit          2D

 61 62  0  0  1  0  0  0  0  0999 V2000
   11.4193  -14.3979    0.0000 C   0  0  0  0  0  0  0  0  0  0  0  0
   12.2620  -15.5917    0.0000 C   0  0  0  0  0  0  0  0  0  0  0  0
   13.5962  -15.1704    0.0000 C   0  0  0  0  0  0  0  0  0  0  0  0
   13.5962  -13.7660    0.0000 C   0  0  0  0  0  0  0  0  0  0  0  0
   12.2620  -13.2744    0.0000 C   0  0  0  0  0  0  0  0  0  0  0  0
   14.7197  -12.9233    0.0000 C   0  0  0  0  0  0  0  0  0  0  0  0
   15.9837  -13.5553    0.0000 C   0  0  0  0  0  0  0  0  0  0  0  0
   17.3881  -13.5553    0.0000 C   0  0  0  0  0  0  0  0  0  0  0  0
   18.5819  -12.8531    0.0000 C   0  0  0  0  0  0  0  0  0  0  0  0
   19.8458  -13.5553    0.0000 C   0  0  0  0  0  0  0  0  0  0  0  0
   21.0397  -12.8531    0.0000 C   0  0  0  0  0  0  0  0  0  0  0  0
   22.2335  -13.4851    0.0000 C   0  0  0  0  0  0  0  0  0  0  0  0
   23.4272  -12.8531    0.0000 O   0  0  0  0  0  0  0  0  0  0  0  0
   22.2335  -14.8895    0.0000 O   0  0  0  0  0  0  0  0  0  0  0  0
   24.6210  -13.4851    0.0000 C   0  0  0  0  0  0  0  0  0  0  0  0
   25.8147  -12.8531    0.0000 C   0  0  0  0  0  0  0  0  0  0  0  0
   24.6210  -14.8895    0.0000 C   0  0  0  0  0  0  0  0  0  0  0  0
   14.7280  -16.0000    0.0000 C   0  0  0  0  0  0  0  0  0  0  0  0
   15.9588  -15.3520    0.0000 C   0  0  0  0  0  0  0  0  0  0  0  0
   17.1397  -16.0966    0.0000 C   0  0  0  0  0  0  0  0  0  0  0  0
   18.3557  -15.4569    0.0000 C   0  0  0  0  0  0  0  0  0  0  0  0
   19.5432  -16.2062    0.0000 O   0  0  0  0  0  0  0  0  0  0  0  0
   16.1466  -17.0896    0.0000 F   0  0  0  0  0  0  0  0  0  0  0  0
   18.1328  -17.0896    0.0000 F   0  0  0  0  0  0  0  0  0  0  0  0
   19.5432  -17.6107    0.0000 C   0  0  0  0  0  0  0  0  0  0  0  0
   18.3360  -18.3079    0.0000 C   0  0  0  0  0  0  0  0  0  0  0  0
   18.3360  -19.7123    0.0000 C   0  0  0  0  0  0  0  0  0  0  0  0
   19.5525  -20.4143    0.0000 C   0  0  0  0  0  0  0  0  0  0  0  0
   20.7597  -19.7171    0.0000 C   0  0  0  0  0  0  0  0  0  0  0  0
   20.7595  -18.3127    0.0000 C   0  0  0  0  0  0  0  0  0  0  0  0
   11.8642  -11.9275    0.0000 O   0  0  0  0  0  0  0  0  0  0  0  0
   11.8134  -16.9226    0.0000 O   0  0  0  0  0  0  0  0  0  0  0  0
   27.1995  -15.4829    0.0000 C   0  0  0  0  0  0  0  0  0  0  0  0
   25.5020  -15.4829    0.0000 C   0  0  0  0  0  0  0  0  0  0  0  0
   27.8361  -16.6145    0.0000 C   0  0  0  0  0  0  0  0  0  0  0  0
   24.8653  -16.6852    0.0000 C   0  0  0  0  0  0  0  0  0  0  0  0
   27.1995  -17.8170    0.0000 O   0  0  0  0  0  0  0  0  0  0  0  0
   29.2508  -16.6145    0.0000 O   0  0  0  0  0  0  0  0  0  0  0  0
   23.4508  -16.6852    0.0000 O   0  0  0  0  0  0  0  0  0  0  0  0
   25.5020  -17.8170    0.0000 O   0  0  0  0  0  0  0  0  0  0  0  0
   14.1400  -15.9600    0.0000 C   0  0  0  0  0  0  0  0  0  0  0  0
   15.3300  -16.6600    0.0000 C   0  0  0  0  0  0  0  0  0  0  0  0
   12.9500  -16.6600    0.0000 O   0  0  0  0  0  0  0  0  0  0  0  0
   16.5200  -15.9600    0.0000 C   0  0  0  0  0  0  0  0  0  0  0  0
   17.7100  -16.6600    0.0000 N   0  0  0  0  0  0  0  0  0  0  0  0
   18.9000  -15.9600    0.0000 C   0  0  0  0  0  0  0  0  0  0  0  0
   20.1600  -16.6600    0.0000 C   0  0  0  0  0  0  0  0  0  0  0  0
   18.9000  -14.5600    0.0000 C   0  0  0  0  0  0  0  0  0  0  0  0
   20.1600  -15.2600    0.0000 C   0  0  0  0  0  0  0  0  0  0  0  0
   15.3300  -18.0600    0.0000 O   0  0  0  0  0  0  0  0  0  0  0  0
   12.9500  -18.0600    0.0000 C   0  0  0  0  0  0  0  0  0  0  0  0
   11.8300  -18.9700    0.0000 C   0  0  0  0  0  0  0  0  0  0  0  0
   12.2500  -20.2300    0.0000 N   0  0  0  0  0  0  0  0  0  0  0  0
   13.6500  -20.2300    0.0000 S   0  0  0  0  0  0  0  0  0  0  0  0
   14.0700  -18.9700    0.0000 N   0  0  0  0  0  0  0  0  0  0  0  0
    8.1200  -16.8000    0.0000 O   0  0  0  0  0  0  0  0  0  0  0  0
    8.1200  -18.2700    0.0000 C   0  0  0  0  0  0  0  0  0  0  0  0
    9.3100  -18.9700    0.0000 C   0  0  0  0  0  0  0  0  0  0  0  0
   10.5700  -18.2700    0.0000 N   0  0  0  0  0  0  0  0  0  0  0  0
   10.5700  -16.8000    0.0000 C   0  0  0  0  0  0  0  0  0  0  0  0
    9.3100  -16.1000    0.0000 C   0  0  0  0  0  0  0  0  0  0  0  0
  1  2  1  0
  2  3  1  0
  3  4  1  0
  4  5  1  0
  1  5  1  0
  4  6  1  6
  6  7  1  0
  7  8  2  0
  8  9  1  0
  9 10  1  0
 10 11  1  0
 11 12  1  0
 12 13  1  0
 12 14  2  0
 13 15  1  0
 15 16  1  0
 15 17  1  0
  3 18  1  1
 18 19  2  0
 19 20  1  0
 20 21  1  0
 21 22  1  0
 20 23  1  0
 20 24  1  0
 22 25  1  0
 25 26  2  0
 26 27  1  0
 27 28  2  0
 28 29  1  0
 29 30  2  0
 25 30  1  0
  5 31  1  6
  2 32  1  6
 33 34  2  0
 33 35  1  0
 34 36  1  0
 35 37  1  0
 35 38  2  0
 36 39  1  0
 36 40  2  0
 41 42  1  0
 41 43  1  0
 42 44  1  0
 44 45  1  0
 45 46  1  0
 46 47  1  0
 46 48  1  0
 46 49  1  0
 42 50  1  6
 43 51  1  0
 51 52  1  0
 52 53  2  0
 53 54  1  0
 54 55  1  0
 51 55  2  0
 56 57  1  0
 57 58  1  0
 58 59  1  0
 59 60  1  0
 60 61  1  0
 56 61  1  0
 59 52  1  0
M  END
