 
     RDKit          2D

 94 96  0  0  1  0  0  0  0  0999 V2000
   19.6000  -28.4200    0.0000 C   0  0  0  0  0  0  0  0  0  0  0  0
   19.6000  -29.7500    0.0000 C   0  0  0  0  0  0  0  0  0  0  0  0
   20.7900  -30.4500    0.0000 C   0  0  0  0  0  0  0  0  0  0  0  0
   21.9100  -29.7500    0.0000 C   0  0  0  0  0  0  0  0  0  0  0  0
   21.9100  -28.4200    0.0000 C   0  0  0  0  0  0  0  0  0  0  0  0
   20.7900  -27.7200    0.0000 C   0  0  0  0  0  0  0  0  0  0  0  0
   23.1000  -30.4500    0.0000 C   0  0  0  0  0  0  0  0  0  0  0  0
   24.3600  -29.7500    0.0000 C   0  0  0  0  0  0  0  0  0  0  0  0
   24.3600  -28.4200    0.0000 C   0  0  0  0  0  0  0  0  0  0  0  0
   23.1000  -27.7200    0.0000 C   0  0  0  0  0  0  0  0  0  0  0  0
   25.4100  -27.7200    0.0000 C   0  0  0  0  0  0  0  0  0  0  0  0
   25.4100  -26.3900    0.0000 C   0  0  0  0  0  0  0  0  0  0  0  0
   24.3600  -25.6900    0.0000 C   0  0  0  0  0  0  0  0  0  0  0  0
   23.1000  -26.3900    0.0000 C   0  0  0  0  0  0  0  0  0  0  0  0
   27.7200  -27.7200    0.0000 C   0  0  0  0  0  0  0  0  0  0  0  0
   27.7200  -26.3900    0.0000 C   0  0  0  0  0  0  0  0  0  0  0  0
   26.5300  -25.6900    0.0000 C   0  0  0  0  0  0  0  0  0  0  0  0
   18.4100  -30.4500    0.0000 O   0  0  0  0  0  0  0  0  0  0  0  0
   21.9100  -27.0200    0.0000 C   0  0  0  0  0  0  0  0  0  0  0  0
   23.1000  -29.0500    0.0000 F   0  0  0  0  0  0  0  0  0  0  0  0
   21.9100  -25.6900    0.0000 O   0  0  0  0  0  0  0  0  0  0  0  0
   25.4100  -24.9900    0.0000 C   0  0  0  0  0  0  0  0  0  0  0  0
   27.9300  -24.7800    0.0000 O   0  0  0  0  0  0  0  0  0  0  0  0
   29.1200  -26.3900    0.0000 C   0  0  0  0  0  0  0  0  0  0  0  0
   23.1000  -31.8500    0.0000 F   0  0  0  0  0  0  0  0  0  0  0  0
   26.5300  -24.2900    0.0000 C   0  0  0  0  0  0  0  0  0  0  0  0
   27.7900  -23.5900    0.0000 O   0  0  0  0  0  0  0  0  0  0  0  0
   25.2700  -23.5900    0.0000 S   0  0  0  0  0  0  0  0  0  0  0  0
   24.0800  -24.2900    0.0000 C   0  0  0  0  0  0  0  0  0  0  0  0
   22.8900  -23.5900    0.0000 F   0  0  0  0  0  0  0  0  0  0  0  0
   29.1200  -24.0800    0.0000 C   0  0  0  0  0  0  0  0  0  0  0  0
   30.3100  -24.7800    0.0000 C   0  0  0  0  0  0  0  0  0  0  0  0
   31.5000  -24.0800    0.0000 C   0  0  0  0  0  0  0  0  0  0  0  0
   29.1200  -22.6800    0.0000 O   0  0  0  0  0  0  0  0  0  0  0  0
   46.7600  -20.0900    0.0000 O   0  0  0  0  0  0  0  0  0  0  0  0
   38.0100  -20.8600    0.0000 C   0  0  0  0  0  0  0  0  0  0  0  0
   39.2000  -21.5600    0.0000 C   0  0  0  0  0  0  0  0  0  0  0  0
   36.7500  -21.5600    0.0000 O   0  0  0  0  0  0  0  0  0  0  0  0
   38.0100  -19.4600    0.0000 O   0  0  0  0  0  0  0  0  0  0  0  0
   40.3900  -20.8600    0.0000 C   0  0  0  0  0  0  0  0  0  0  0  0
   41.5800  -21.5600    0.0000 C   0  0  0  0  0  0  0  0  0  0  0  0
   42.8400  -20.8600    0.0000 O   0  0  0  0  0  0  0  0  0  0  0  0
   41.5800  -22.8900    0.0000 O   0  0  0  0  0  0  0  0  0  0  0  0
   20.0200  -21.5600    0.0000 C   0  0  0  0  0  0  0  0  0  0  0  0
   18.8300  -22.2600    0.0000 C   0  0  0  0  0  0  0  0  0  0  0  0
   20.0200  -20.1600    0.0000 C   0  0  0  0  0  0  0  0  0  0  0  0
   21.2100  -22.2600    0.0000 C   0  0  0  0  0  0  0  0  0  0  0  0
   17.5700  -21.5600    0.0000 C   0  0  0  0  0  0  0  0  0  0  0  0
   18.8300  -19.4600    0.0000 C   0  0  0  0  0  0  0  0  0  0  0  0
   22.4700  -21.5600    0.0000 C   0  0  0  0  0  0  0  0  0  0  0  0
   21.2100  -23.6600    0.0000 O   0  0  0  0  0  0  0  0  0  0  0  0
   17.5700  -20.1600    0.0000 C   0  0  0  0  0  0  0  0  0  0  0  0
   16.3800  -22.2600    0.0000 N   0  0  0  0  0  0  0  0  0  0  0  0
   23.6600  -22.2600    0.0000 N   0  0  0  0  0  0  0  0  0  0  0  0
   16.3800  -19.4600    0.0000 O   0  0  0  0  0  0  0  0  0  0  0  0
   15.1900  -21.5600    0.0000 C   0  0  0  0  0  0  0  0  0  0  0  0
   24.8500  -21.5600    0.0000 C   0  0  0  0  0  0  0  0  0  0  0  0
   13.9300  -22.2600    0.0000 O   0  0  0  0  0  0  0  0  0  0  0  0
   26.0400  -22.2600    0.0000 C   0  0  0  0  0  0  0  0  0  0  0  0
   24.8500  -20.1600    0.0000 C   0  0  0  0  0  0  0  0  0  0  0  0
   27.3000  -21.5600    0.0000 C   0  0  0  0  0  0  0  0  0  0  0  0
   27.3000  -20.1600    0.0000 C   0  0  0  0  0  0  0  0  0  0  0  0
   28.4900  -22.2600    0.0000 C   0  0  0  0  0  0  0  0  0  0  0  0
   28.4900  -19.4600    0.0000 C   0  0  0  0  0  0  0  0  0  0  0  0
   29.6800  -21.5600    0.0000 C   0  0  0  0  0  0  0  0  0  0  0  0
   29.6800  -20.1600    0.0000 C   0  0  0  0  0  0  0  0  0  0  0  0
   30.9400  -19.3900    0.0000 O   0  0  0  0  0  0  0  0  0  0  0  0
   32.1300  -20.0900    0.0000 C   0  0  0  0  0  0  0  0  0  0  0  0
   46.6900  -21.9100    0.0000 O   0  0  0  0  0  0  0  0  0  0  0  0
   20.0200  -21.5600    0.0000 C   0  0  0  0  0  0  0  0  0  0  0  0
   18.8300  -22.2600    0.0000 C   0  0  0  0  0  0  0  0  0  0  0  0
   17.5700  -21.5600    0.0000 C   0  0  0  0  0  0  0  0  0  0  0  0
   17.5700  -20.1600    0.0000 C   0  0  0  0  0  0  0  0  0  0  0  0
   16.3800  -19.4600    0.0000 O   0  0  0  0  0  0  0  0  0  0  0  0
   18.8300  -19.4600    0.0000 C   0  0  0  0  0  0  0  0  0  0  0  0
   20.0200  -20.1600    0.0000 C   0  0  0  0  0  0  0  0  0  0  0  0
   16.3800  -22.2600    0.0000 N   0  0  0  0  0  0  0  0  0  0  0  0
   15.1900  -21.5600    0.0000 C   0  0  0  0  0  0  0  0  0  0  0  0
   13.9300  -22.2600    0.0000 O   0  0  0  0  0  0  0  0  0  0  0  0
   21.2100  -22.2600    0.0000 C   0  0  0  0  0  0  0  0  0  0  0  0
   22.4700  -21.5600    0.0000 C   0  0  0  0  0  0  0  0  0  0  0  0
   23.6600  -22.2600    0.0000 N   0  0  0  0  0  0  0  0  0  0  0  0
   24.8500  -21.5600    0.0000 C   0  0  0  0  0  0  0  0  0  0  0  0
   26.0400  -22.2600    0.0000 C   0  0  0  0  0  0  0  0  0  0  0  0
   27.3000  -21.5600    0.0000 C   0  0  0  0  0  0  0  0  0  0  0  0
   27.3000  -20.1600    0.0000 C   0  0  0  0  0  0  0  0  0  0  0  0
   28.4900  -19.4600    0.0000 C   0  0  0  0  0  0  0  0  0  0  0  0
   29.6800  -20.1600    0.0000 C   0  0  0  0  0  0  0  0  0  0  0  0
   30.9400  -19.3900    0.0000 O   0  0  0  0  0  0  0  0  0  0  0  0
   32.1300  -20.0900    0.0000 C   0  0  0  0  0  0  0  0  0  0  0  0
   29.6800  -21.5600    0.0000 C   0  0  0  0  0  0  0  0  0  0  0  0
   28.4900  -22.2600    0.0000 C   0  0  0  0  0  0  0  0  0  0  0  0
   24.8500  -20.1600    0.0000 C   0  0  0  0  0  0  0  0  0  0  0  0
   21.2100  -23.6600    0.0000 O   0  0  0  0  0  0  0  0  0  0  0  0
  1  2  1  0
  2  3  1  0
  3  4  2  0
  4  5  1  0
  5  6  1  0
  1  6  2  0
  4  7  1  0
  7  8  1  0
  9  8  1  6
  9 10  1  0
  5 10  1  0
  9 11  1  0
 11 12  1  0
 12 13  1  0
 13 14  1  0
 10 14  1  0
 11 15  1  1
 15 16  1  0
 16 17  1  0
 12 17  1  0
  2 18  2  0
  5 19  1  1
 10 20  1  6
 14 21  1  1
 12 22  1  1
 17 23  1  6
 16 24  1  6
  7 25  1  6
 17 26  1  0
 26 27  2  0
 26 28  1  0
 28 29  1  0
 29 30  1  0
 31 32  1  0
 31 23  1  0
 32 33  1  0
 31 34  2  0
 36 37  1  0
 36 38  1  0
 36 39  2  0
 37 40  2  0
 40 41  1  0
 41 42  1  0
 41 43  2  0
 44 45  2  0
 44 46  1  0
 44 47  1  0
 45 48  1  0
 46 49  2  0
 47 50  1  0
 47 51  1  0
 48 52  2  0
 48 53  1  0
 50 54  1  0
 52 55  1  0
 53 56  1  0
 54 57  1  0
 56 58  2  0
 57 59  1  0
 57 60  1  0
 59 61  1  0
 61 62  2  0
 61 63  1  0
 62 64  1  0
 63 65  2  0
 64 66  2  0
 66 67  1  0
 67 68  1  0
 49 52  1  0
 65 66  1  0
 70 71  2  0
 70 76  1  0
 70 80  1  0
 71 72  1  0
 76 75  2  0
 80 81  1  0
 80 94  1  0
 72 73  2  0
 72 77  1  0
 81 82  1  0
 73 74  1  0
 77 78  1  0
 82 83  1  0
 78 79  2  0
 83 84  1  0
 83 93  1  0
 84 85  1  0
 85 86  2  0
 85 92  1  0
 86 87  1  0
 92 91  2  0
 87 88  2  0
 88 89  1  0
 89 90  1  0
 75 73  1  0
 91 88  1  0
M  END
