 
     RDKit          2D

 82 84  0  0  0  0  0  0  0  0999 V2000
   25.2991  -19.3605    0.0000 C   0  0  0  0  0  0  0  0  0  0  0  0
   24.0935  -18.6673    0.0000 N   0  0  0  0  0  0  0  0  0  0  0  0
   26.5163  -18.6673    0.0000 N   0  0  0  0  0  0  0  0  0  0  0  0
   25.2991  -20.7640    0.0000 N   0  0  0  0  0  0  0  0  0  0  0  0
   22.8764  -19.3605    0.0000 C   0  0  0  0  0  0  0  0  0  0  0  0
   27.7278  -19.3605    0.0000 C   0  0  0  0  0  0  0  0  0  0  0  0
   26.5163  -17.2579    0.0000 C   0  0  0  0  0  0  0  0  0  0  0  0
   21.6649  -18.6673    0.0000 N   0  0  0  0  0  0  0  0  0  0  0  0
   22.8764  -20.7640    0.0000 N   0  0  0  0  0  0  0  0  0  0  0  0
   31.1135  -18.2132    0.0000 Cl  0  0  0  0  0  0  0  0  0  0  0  0
   26.2960  -19.4016    0.0000 C   0  0  0  0  0  0  0  0  0  0  0  0
   25.0898  -18.7081    0.0000 N   0  0  0  0  0  0  0  0  0  0  0  0
   27.5139  -18.7081    0.0000 N   0  0  0  0  0  0  0  0  0  0  0  0
   26.2960  -20.8058    0.0000 N   0  0  0  0  0  0  0  0  0  0  0  0
   23.8721  -19.4016    0.0000 C   0  0  0  0  0  0  0  0  0  0  0  0
   28.7260  -19.4016    0.0000 C   0  0  0  0  0  0  0  0  0  0  0  0
   27.5139  -17.3038    0.0000 C   0  0  0  0  0  0  0  0  0  0  0  0
   22.6600  -18.7081    0.0000 N   0  0  0  0  0  0  0  0  0  0  0  0
   23.8721  -20.8058    0.0000 N   0  0  0  0  0  0  0  0  0  0  0  0
   30.0300  -17.3600    0.0000 O   0  0  0  0  0  0  0  0  0  0  0  0
   10.6400  -14.8400    0.0000 C   0  0  0  0  0  0  0  0  0  0  0  0
   10.6400  -16.2400    0.0000 C   0  0  0  0  0  0  0  0  0  0  0  0
   11.8300  -16.9400    0.0000 C   0  0  0  0  0  0  0  0  0  0  0  0
   13.0900  -16.2400    0.0000 C   0  0  0  0  0  0  0  0  0  0  0  0
   13.0900  -14.8400    0.0000 O   0  0  0  0  0  0  0  0  0  0  0  0
   11.8300  -14.1400    0.0000 C   0  0  0  0  0  0  0  0  0  0  0  0
   11.8300  -12.7400    0.0000 C   0  0  0  0  0  0  0  0  0  0  0  0
    9.4500  -16.9400    0.0000 O   0  0  0  0  0  0  0  0  0  0  0  0
   14.2800  -16.9400    0.0000 C   0  0  0  0  0  0  0  0  0  0  0  0
   11.8300  -18.3400    0.0000 O   0  0  0  0  0  0  0  0  0  0  0  0
    9.4500  -14.1400    0.0000 O   0  0  0  0  0  0  0  0  0  0  0  0
   13.0200  -12.0400    0.0000 O   0  0  0  0  0  0  0  0  0  0  0  0
   14.2800  -18.3400    0.0000 C   0  0  0  0  0  0  0  0  0  0  0  0
   15.5400  -19.0400    0.0000 C   0  0  0  0  0  0  0  0  0  0  0  0
   16.7300  -18.3400    0.0000 C   0  0  0  0  0  0  0  0  0  0  0  0
   16.7300  -16.9400    0.0000 C   0  0  0  0  0  0  0  0  0  0  0  0
   15.5400  -16.2400    0.0000 C   0  0  0  0  0  0  0  0  0  0  0  0
   17.9200  -19.0400    0.0000 C   0  0  0  0  0  0  0  0  0  0  0  0
   17.9200  -16.2400    0.0000 C   0  0  0  0  0  0  0  0  0  0  0  0
   19.1100  -16.9400    0.0000 C   0  0  0  0  0  0  0  0  0  0  0  0
   19.6000  -18.2700    0.0000 S   0  0  0  0  0  0  0  0  0  0  0  0
   21.0000  -18.2700    0.0000 C   0  0  0  0  0  0  0  0  0  0  0  0
   21.4200  -16.9400    0.0000 C   0  0  0  0  0  0  0  0  0  0  0  0
   20.2300  -16.1000    0.0000 C   0  0  0  0  0  0  0  0  0  0  0  0
   22.1900  -18.9700    0.0000 C   0  0  0  0  0  0  0  0  0  0  0  0
   22.1900  -20.3700    0.0000 C   0  0  0  0  0  0  0  0  0  0  0  0
   23.4500  -21.0700    0.0000 C   0  0  0  0  0  0  0  0  0  0  0  0
   24.6400  -20.3700    0.0000 C   0  0  0  0  0  0  0  0  0  0  0  0
   24.6400  -18.9700    0.0000 C   0  0  0  0  0  0  0  0  0  0  0  0
   23.4500  -18.2700    0.0000 C   0  0  0  0  0  0  0  0  0  0  0  0
   25.8300  -21.0700    0.0000 F   0  0  0  0  0  0  0  0  0  0  0  0
   10.6400  -14.8400    0.0000 C   0  0  0  0  0  0  0  0  0  0  0  0
   10.6400  -16.2400    0.0000 C   0  0  0  0  0  0  0  0  0  0  0  0
   11.8300  -16.9400    0.0000 C   0  0  0  0  0  0  0  0  0  0  0  0
   13.0900  -16.2400    0.0000 C   0  0  0  0  0  0  0  0  0  0  0  0
   13.0900  -14.8400    0.0000 O   0  0  0  0  0  0  0  0  0  0  0  0
   11.8300  -14.1400    0.0000 C   0  0  0  0  0  0  0  0  0  0  0  0
   11.8300  -12.7400    0.0000 C   0  0  0  0  0  0  0  0  0  0  0  0
   13.0200  -12.0400    0.0000 O   0  0  0  0  0  0  0  0  0  0  0  0
   14.2800  -16.9400    0.0000 C   0  0  0  0  0  0  0  0  0  0  0  0
   14.2800  -18.3400    0.0000 C   0  0  0  0  0  0  0  0  0  0  0  0
   15.5400  -19.0400    0.0000 C   0  0  0  0  0  0  0  0  0  0  0  0
   16.7300  -18.3400    0.0000 C   0  0  0  0  0  0  0  0  0  0  0  0
   16.7300  -16.9400    0.0000 C   0  0  0  0  0  0  0  0  0  0  0  0
   15.5400  -16.2400    0.0000 C   0  0  0  0  0  0  0  0  0  0  0  0
   17.9200  -16.2400    0.0000 C   0  0  0  0  0  0  0  0  0  0  0  0
   19.1100  -16.9400    0.0000 C   0  0  0  0  0  0  0  0  0  0  0  0
   19.6000  -18.2700    0.0000 S   0  0  0  0  0  0  0  0  0  0  0  0
   21.0000  -18.2700    0.0000 C   0  0  0  0  0  0  0  0  0  0  0  0
   21.4200  -16.9400    0.0000 C   0  0  0  0  0  0  0  0  0  0  0  0
   20.2300  -16.1000    0.0000 C   0  0  0  0  0  0  0  0  0  0  0  0
   22.1900  -18.9700    0.0000 C   0  0  0  0  0  0  0  0  0  0  0  0
   22.1900  -20.3700    0.0000 C   0  0  0  0  0  0  0  0  0  0  0  0
   23.4500  -21.0700    0.0000 C   0  0  0  0  0  0  0  0  0  0  0  0
   24.6400  -20.3700    0.0000 C   0  0  0  0  0  0  0  0  0  0  0  0
   24.6400  -18.9700    0.0000 C   0  0  0  0  0  0  0  0  0  0  0  0
   23.4500  -18.2700    0.0000 C   0  0  0  0  0  0  0  0  0  0  0  0
   25.8300  -21.0700    0.0000 F   0  0  0  0  0  0  0  0  0  0  0  0
   17.9200  -19.0400    0.0000 C   0  0  0  0  0  0  0  0  0  0  0  0
   11.8300  -18.3400    0.0000 O   0  0  0  0  0  0  0  0  0  0  0  0
    9.4500  -16.9400    0.0000 O   0  0  0  0  0  0  0  0  0  0  0  0
    9.4500  -14.1400    0.0000 O   0  0  0  0  0  0  0  0  0  0  0  0
  1  2  1  0
  1  3  1  0
  1  4  2  0
  2  5  1  0
  3  6  1  0
  3  7  1  0
  5  8  1  0
  5  9  2  0
 11 12  1  0
 11 13  1  0
 11 14  2  0
 12 15  1  0
 13 16  1  0
 13 17  1  0
 15 18  1  0
 15 19  2  0
 21 22  1  0
 22 23  1  0
 23 24  1  0
 24 25  1  0
 25 26  1  0
 21 26  1  0
 26 27  1  1
 22 28  1  1
 24 29  1  1
 23 30  1  6
 21 31  1  6
 27 32  1  0
 29 33  2  0
 33 34  1  0
 34 35  2  0
 35 36  1  0
 36 37  2  0
 29 37  1  0
 35 38  1  0
 36 39  1  0
 39 40  1  0
 40 41  1  0
 41 42  1  0
 42 43  2  0
 43 44  1  0
 40 44  2  0
 42 45  1  0
 45 46  2  0
 46 47  1  0
 47 48  2  0
 48 49  1  0
 49 50  2  0
 45 50  1  0
 48 51  1  0
 52 53  1  0
 53 54  1  0
 54 55  1  0
 55 56  1  0
 56 57  1  0
 52 57  1  0
 57 58  1  1
 53 81  1  1
 55 60  1  1
 54 80  1  6
 52 82  1  6
 58 59  1  0
 60 61  2  0
 61 62  1  0
 62 63  2  0
 63 64  1  0
 64 65  2  0
 60 65  1  0
 63 79  1  0
 64 66  1  0
 66 67  1  0
 67 68  1  0
 68 69  1  0
 69 70  2  0
 70 71  1  0
 67 71  2  0
 69 72  1  0
 72 73  2  0
 73 74  1  0
 74 75  2  0
 75 76  1  0
 76 77  2  0
 72 77  1  0
 75 78  1  0
M  END
