 
     RDKit          2D

119126  0  0  0  0  0  0  0  0999 V2000
   26.1100  -23.1000    0.0000 C   0  0  0  0  0  0  0  0  0  0  0  0
   24.8500  -22.4000    0.0000 C   0  0  0  0  0  0  0  0  0  0  0  0
   26.1100  -24.6400    0.0000 C   0  0  0  0  0  0  0  0  0  0  0  0
   23.5900  -23.1000    0.0000 C   0  0  0  0  0  0  0  0  0  0  0  0
   25.2700  -23.7300    0.0000 C   0  0  0  0  0  0  0  0  0  0  0  0
   24.8500  -25.3400    0.0000 N   0  0  0  0  0  0  0  0  0  0  0  0
   23.5900  -24.5700    0.0000 C   0  0  0  0  0  0  0  0  0  0  0  0
   24.4300  -23.9400    0.0000 C   0  0  0  0  0  0  0  0  0  0  0  0
   24.8500  -26.7400    0.0000 C   0  0  0  0  0  0  0  0  0  0  0  0
   23.6600  -27.4400    0.0000 C   0  0  0  0  0  0  0  0  0  0  0  0
   22.4000  -26.7400    0.0000 O   0  0  0  0  0  0  0  0  0  0  0  0
   21.2100  -27.4400    0.0000 C   0  0  0  0  0  0  0  0  0  0  0  0
   20.0200  -26.7400    0.0000 C   0  0  0  0  0  0  0  0  0  0  0  0
   20.0200  -25.3400    0.0000 C   0  0  0  0  0  0  0  0  0  0  0  0
   18.8300  -24.6400    0.0000 C   0  0  0  0  0  0  0  0  0  0  0  0
   17.5700  -25.3400    0.0000 C   0  0  0  0  0  0  0  0  0  0  0  0
   17.5700  -26.7400    0.0000 C   0  0  0  0  0  0  0  0  0  0  0  0
   18.8300  -27.4400    0.0000 C   0  0  0  0  0  0  0  0  0  0  0  0
   24.8500  -21.0000    0.0000 C   0  0  0  0  0  0  0  0  0  0  0  0
   26.1100  -20.3000    0.0000 C   0  0  0  0  0  0  0  0  0  0  0  0
   23.6600  -20.3000    0.0000 C   0  0  0  0  0  0  0  0  0  0  0  0
   26.1100  -21.7000    0.0000 O   0  0  0  0  0  0  0  0  0  0  0  0
   27.3000  -21.0000    0.0000 C   0  0  0  0  0  0  0  0  0  0  0  0
   28.4900  -20.3000    0.0000 C   0  0  0  0  0  0  0  0  0  0  0  0
   28.4900  -18.9000    0.0000 C   0  0  0  0  0  0  0  0  0  0  0  0
   27.3000  -18.2000    0.0000 C   0  0  0  0  0  0  0  0  0  0  0  0
   26.1100  -18.9000    0.0000 C   0  0  0  0  0  0  0  0  0  0  0  0
   23.6600  -18.9000    0.0000 C   0  0  0  0  0  0  0  0  0  0  0  0
   22.4000  -18.2000    0.0000 C   0  0  0  0  0  0  0  0  0  0  0  0
   21.2100  -18.9000    0.0000 C   0  0  0  0  0  0  0  0  0  0  0  0
   21.2100  -20.3000    0.0000 C   0  0  0  0  0  0  0  0  0  0  0  0
   22.4000  -21.0000    0.0000 C   0  0  0  0  0  0  0  0  0  0  0  0
   28.1400  -26.8100    0.0000 Br  0  0  0  0  0  0  0  0  0  0  0  0
    8.4000  -13.4400    0.0000 C   0  0  0  0  0  0  0  0  0  0  0  0
    8.4000  -11.9700    0.0000 C   0  0  0  0  0  0  0  0  0  0  0  0
    9.6600  -11.2700    0.0000 C   0  0  0  0  0  0  0  0  0  0  0  0
   10.8500  -11.9700    0.0000 C   0  0  0  0  0  0  0  0  0  0  0  0
   10.8500  -13.4400    0.0000 C   0  0  0  0  0  0  0  0  0  0  0  0
    9.6600  -14.1400    0.0000 C   0  0  0  0  0  0  0  0  0  0  0  0
   12.0400  -14.1400    0.0000 C   0  0  0  0  0  0  0  0  0  0  0  0
   13.2300  -13.4400    0.0000 C   0  0  0  0  0  0  0  0  0  0  0  0
   14.4200  -14.1400    0.0000 N   0  0  0  0  0  0  0  0  0  0  0  0
   15.6800  -13.4400    0.0000 C   0  0  0  0  0  0  0  0  0  0  0  0
   16.8700  -14.1400    0.0000 C   0  0  0  0  0  0  0  0  0  0  0  0
   18.0600  -13.4400    0.0000 C   0  0  0  0  0  0  0  0  0  0  0  0
   19.2500  -14.1400    0.0000 C   0  0  0  0  0  0  0  0  0  0  0  0
   20.4400  -13.4400    0.0000 C   0  0  0  0  0  0  0  0  0  0  0  0
   21.6300  -14.1400    0.0000 C   0  0  0  0  0  0  0  0  0  0  0  0
   22.8200  -13.4400    0.0000 O   0  0  0  0  0  0  0  0  0  0  0  0
   12.0400  -15.5400    0.0000 O   0  0  0  0  0  0  0  0  0  0  0  0
   24.0800  -14.1400    0.0000 C   0  0  0  0  0  0  0  0  0  0  0  0
   25.2700  -13.4400    0.0000 C   0  0  0  0  0  0  0  0  0  0  0  0
   26.4600  -14.1400    0.0000 O   0  0  0  0  0  0  0  0  0  0  0  0
   27.6500  -13.4400    0.0000 C   0  0  0  0  0  0  0  0  0  0  0  0
   28.8400  -14.1400    0.0000 C   0  0  0  0  0  0  0  0  0  0  0  0
   30.0300  -13.4400    0.0000 C   0  0  0  0  0  0  0  0  0  0  0  0
   31.2900  -14.1400    0.0000 C   0  0  0  0  0  0  0  0  0  0  0  0
   31.2900  -15.5400    0.0000 C   0  0  0  0  0  0  0  0  0  0  0  0
   30.1000  -16.2400    0.0000 C   0  0  0  0  0  0  0  0  0  0  0  0
   28.8400  -15.5400    0.0000 C   0  0  0  0  0  0  0  0  0  0  0  0
   27.5800  -16.2400    0.0000 Cl  0  0  0  0  0  0  0  0  0  0  0  0
   30.0300  -11.9700    0.0000 Cl  0  0  0  0  0  0  0  0  0  0  0  0
    7.2100  -14.1400    0.0000 C   0  0  0  0  0  0  0  0  0  0  0  0
    6.0200  -13.4400    0.0000 O   0  0  0  0  0  0  0  0  0  0  0  0
    7.2100  -11.2700    0.0000 O   0  0  0  0  0  0  0  0  0  0  0  0
   19.1800  -20.0900    0.0000 C   0  0  0  0  0  0  0  0  0  0  0  0
   20.5800  -20.0900    0.0000 C   0  0  0  0  0  0  0  0  0  0  0  0
   21.9800  -20.0900    0.0000 C   0  0  0  0  0  0  0  0  0  0  0  0
   20.5800  -18.6900    0.0000 C   0  0  0  0  0  0  0  0  0  0  0  0
   20.5800  -21.4900    0.0000 C   0  0  0  0  0  0  0  0  0  0  0  0
   19.3900  -22.1900    0.0000 O   0  0  0  0  0  0  0  0  0  0  0  0
   21.8400  -22.1900    0.0000 O   0  0  0  0  0  0  0  0  0  0  0  0
   21.8400  -17.9900    0.0000 C   0  0  0  0  0  0  0  0  0  0  0  0
   21.8400  -16.5900    0.0000 C   0  0  0  0  0  0  0  0  0  0  0  0
   20.5800  -15.8900    0.0000 C   0  0  0  0  0  0  0  0  0  0  0  0
   19.3900  -16.5900    0.0000 C   0  0  0  0  0  0  0  0  0  0  0  0
   19.3900  -17.9900    0.0000 C   0  0  0  0  0  0  0  0  0  0  0  0
   22.6800  -21.2800    0.0000 C   0  0  0  0  0  0  0  0  0  0  0  0
   24.0800  -21.2800    0.0000 C   0  0  0  0  0  0  0  0  0  0  0  0
   24.7800  -20.0900    0.0000 C   0  0  0  0  0  0  0  0  0  0  0  0
   24.0800  -18.9000    0.0000 C   0  0  0  0  0  0  0  0  0  0  0  0
   22.6800  -18.9000    0.0000 C   0  0  0  0  0  0  0  0  0  0  0  0
   18.4800  -18.9000    0.0000 C   0  0  0  0  0  0  0  0  0  0  0  0
   17.0800  -18.9000    0.0000 C   0  0  0  0  0  0  0  0  0  0  0  0
   16.3800  -20.0900    0.0000 C   0  0  0  0  0  0  0  0  0  0  0  0
   17.0800  -21.2800    0.0000 C   0  0  0  0  0  0  0  0  0  0  0  0
   18.4800  -21.2800    0.0000 C   0  0  0  0  0  0  0  0  0  0  0  0
    8.3300  -15.8900    0.0000 C   0  0  0  0  0  0  0  0  0  0  0  0
    8.3300  -14.4200    0.0000 C   0  0  0  0  0  0  0  0  0  0  0  0
    9.5900  -13.7200    0.0000 C   0  0  0  0  0  0  0  0  0  0  0  0
   10.7800  -14.4200    0.0000 C   0  0  0  0  0  0  0  0  0  0  0  0
   10.7800  -15.8900    0.0000 C   0  0  0  0  0  0  0  0  0  0  0  0
    9.5900  -16.5900    0.0000 C   0  0  0  0  0  0  0  0  0  0  0  0
   12.0400  -16.5900    0.0000 C   0  0  0  0  0  0  0  0  0  0  0  0
   13.2300  -15.8900    0.0000 C   0  0  0  0  0  0  0  0  0  0  0  0
   14.4200  -16.5900    0.0000 N   0  0  0  0  0  0  0  0  0  0  0  0
   15.6800  -15.8900    0.0000 C   0  0  0  0  0  0  0  0  0  0  0  0
   16.8700  -16.5900    0.0000 C   0  0  0  0  0  0  0  0  0  0  0  0
   18.0600  -15.8900    0.0000 C   0  0  0  0  0  0  0  0  0  0  0  0
   19.2500  -16.5900    0.0000 C   0  0  0  0  0  0  0  0  0  0  0  0
   20.4400  -15.8900    0.0000 C   0  0  0  0  0  0  0  0  0  0  0  0
   21.6300  -16.5900    0.0000 C   0  0  0  0  0  0  0  0  0  0  0  0
   22.8200  -15.8900    0.0000 O   0  0  0  0  0  0  0  0  0  0  0  0
   12.0400  -17.9900    0.0000 O   0  0  0  0  0  0  0  0  0  0  0  0
   24.0800  -16.5900    0.0000 C   0  0  0  0  0  0  0  0  0  0  0  0
   25.2700  -15.8900    0.0000 C   0  0  0  0  0  0  0  0  0  0  0  0
   26.4600  -16.5900    0.0000 O   0  0  0  0  0  0  0  0  0  0  0  0
   27.6500  -15.8900    0.0000 C   0  0  0  0  0  0  0  0  0  0  0  0
   28.8400  -16.5900    0.0000 C   0  0  0  0  0  0  0  0  0  0  0  0
   30.0300  -15.8900    0.0000 C   0  0  0  0  0  0  0  0  0  0  0  0
   31.2900  -16.5900    0.0000 C   0  0  0  0  0  0  0  0  0  0  0  0
   31.2900  -17.9900    0.0000 C   0  0  0  0  0  0  0  0  0  0  0  0
   30.1000  -18.6900    0.0000 C   0  0  0  0  0  0  0  0  0  0  0  0
   28.8400  -17.9900    0.0000 C   0  0  0  0  0  0  0  0  0  0  0  0
   27.5800  -18.6900    0.0000 Cl  0  0  0  0  0  0  0  0  0  0  0  0
   30.0300  -14.4200    0.0000 Cl  0  0  0  0  0  0  0  0  0  0  0  0
    7.1400  -16.5900    0.0000 C   0  0  0  0  0  0  0  0  0  0  0  0
    5.9500  -15.8900    0.0000 O   0  0  0  0  0  0  0  0  0  0  0  0
    7.1400  -13.7200    0.0000 O   0  0  0  0  0  0  0  0  0  0  0  0
  1  2  1  0
  1  3  1  0
  2  4  1  0
  2  5  1  0
  3  6  1  0
  4  7  1  0
  5  8  1  0
  6  7  1  0
  6  8  1  0
  6  9  1  0
  9 10  1  0
 10 11  1  0
 11 12  1  0
 12 13  1  0
 13 14  2  0
 14 15  1  0
 15 16  2  0
 16 17  1  0
 17 18  2  0
 13 18  1  0
  2 19  1  0
 19 20  1  0
 19 21  1  0
 19 22  1  0
 20 23  2  0
 23 24  1  0
 24 25  2  0
 25 26  1  0
 26 27  2  0
 20 27  1  0
 21 28  2  0
 28 29  1  0
 29 30  2  0
 30 31  1  0
 31 32  2  0
 21 32  1  0
 34 35  2  0
 35 36  1  0
 36 37  2  0
 37 38  1  0
 38 39  2  0
 34 39  1  0
 38 40  1  0
 40 41  1  0
 41 42  1  0
 42 43  1  0
 43 44  1  0
 44 45  1  0
 45 46  1  0
 46 47  1  0
 47 48  1  0
 48 49  1  0
 40 50  1  6
 49 51  1  0
 51 52  1  0
 52 53  1  0
 53 54  1  0
 54 55  1  0
 55 56  2  0
 56 57  1  0
 57 58  2  0
 58 59  1  0
 59 60  2  0
 55 60  1  0
 60 61  1  0
 56 62  1  0
 34 63  1  0
 63 64  1  0
 35 65  1  0
 66 67  1  0
 67 68  1  0
 67 69  1  0
 67 70  1  0
 70 71  2  0
 70 72  1  0
 69 73  2  0
 73 74  1  0
 74 75  2  0
 75 76  1  0
 76 77  2  0
 69 77  1  0
 68 78  2  0
 78 79  1  0
 79 80  2  0
 80 81  1  0
 81 82  2  0
 68 82  1  0
 66 83  2  0
 83 84  1  0
 84 85  2  0
 85 86  1  0
 86 87  2  0
 66 87  1  0
 88 89  2  0
 89 90  1  0
 90 91  2  0
 91 92  1  0
 92 93  2  0
 88 93  1  0
 92 94  1  0
 94 95  1  0
 95 96  1  0
 96 97  1  0
 97 98  1  0
 98 99  1  0
 99100  1  0
100101  1  0
101102  1  0
102103  1  0
 94104  1  6
103105  1  0
105106  1  0
106107  1  0
107108  1  0
108109  1  0
109110  2  0
110111  1  0
111112  2  0
112113  1  0
113114  2  0
109114  1  0
114115  1  0
110116  1  0
 88117  1  0
117118  1  0
 89119  1  0
M  CHG  2   6   1  33  -1
M  END
