 
     RDKit          2D

133146  0  0  0  0  0  0  0  0999 V2000
   19.6700  -22.2600    0.0000 C   0  0  0  0  0  0  0  0  0  0  0  0
   19.6700  -20.8600    0.0000 C   0  0  0  0  0  0  0  0  0  0  0  0
   20.8600  -20.1600    0.0000 C   0  0  0  0  0  0  0  0  0  0  0  0
   22.0500  -20.8600    0.0000 C   0  0  0  0  0  0  0  0  0  0  0  0
   22.0500  -22.2600    0.0000 C   0  0  0  0  0  0  0  0  0  0  0  0
   20.8600  -22.9600    0.0000 N   0  0  0  0  0  0  0  0  0  0  0  0
   20.8600  -17.9900    0.0000 C   0  0  0  0  0  0  0  0  0  0  0  0
   19.6700  -17.2900    0.0000 C   0  0  0  0  0  0  0  0  0  0  0  0
   19.6700  -15.8900    0.0000 C   0  0  0  0  0  0  0  0  0  0  0  0
   20.8600  -15.1900    0.0000 C   0  0  0  0  0  0  0  0  0  0  0  0
   22.0500  -15.8900    0.0000 C   0  0  0  0  0  0  0  0  0  0  0  0
   22.0500  -17.2900    0.0000 C   0  0  0  0  0  0  0  0  0  0  0  0
   18.4800  -22.9600    0.0000 N   0  0  0  0  0  0  0  0  0  0  0  0
   18.4800  -24.3600    0.0000 C   0  0  0  0  0  0  0  0  0  0  0  0
   17.2900  -25.0600    0.0000 C   0  0  0  0  0  0  0  0  0  0  0  0
   16.1000  -24.3600    0.0000 N   0  0  0  0  0  0  0  0  0  0  0  0
   16.1000  -22.9600    0.0000 C   0  0  0  0  0  0  0  0  0  0  0  0
   17.2900  -22.2600    0.0000 C   0  0  0  0  0  0  0  0  0  0  0  0
   18.4800  -17.9900    0.0000 C   0  0  0  0  0  0  0  0  0  0  0  0
   23.3100  -20.1600    0.0000 N   0  0  0  0  0  0  0  0  0  0  0  0
   24.5000  -20.8600    0.0000 C   0  0  0  0  0  0  0  0  0  0  0  0
   23.3100  -18.8300    0.0000 C   0  0  0  0  0  0  0  0  0  0  0  0
   25.6200  -20.1600    0.0000 C   0  0  0  0  0  0  0  0  0  0  0  0
   24.5000  -22.2600    0.0000 O   0  0  0  0  0  0  0  0  0  0  0  0
   26.8100  -20.8600    0.0000 C   0  0  0  0  0  0  0  0  0  0  0  0
   28.0000  -20.1600    0.0000 C   0  0  0  0  0  0  0  0  0  0  0  0
   29.1900  -20.8600    0.0000 C   0  0  0  0  0  0  0  0  0  0  0  0
   29.1900  -22.2600    0.0000 C   0  0  0  0  0  0  0  0  0  0  0  0
   28.0000  -22.9600    0.0000 C   0  0  0  0  0  0  0  0  0  0  0  0
   26.8100  -22.2600    0.0000 C   0  0  0  0  0  0  0  0  0  0  0  0
   24.4300  -19.5300    0.0000 C   0  0  0  0  0  0  0  0  0  0  0  0
   26.8100  -19.5300    0.0000 C   0  0  0  0  0  0  0  0  0  0  0  0
   28.0000  -24.3600    0.0000 C   0  0  0  0  0  0  0  0  0  0  0  0
   30.3800  -20.1600    0.0000 C   0  0  0  0  0  0  0  0  0  0  0  0
   31.5700  -19.4600    0.0000 F   0  0  0  0  0  0  0  0  0  0  0  0
   29.6800  -18.9700    0.0000 F   0  0  0  0  0  0  0  0  0  0  0  0
   31.0800  -21.3500    0.0000 F   0  0  0  0  0  0  0  0  0  0  0  0
   28.0000  -25.6900    0.0000 F   0  0  0  0  0  0  0  0  0  0  0  0
   26.6700  -24.3600    0.0000 F   0  0  0  0  0  0  0  0  0  0  0  0
   29.4000  -24.3600    0.0000 F   0  0  0  0  0  0  0  0  0  0  0  0
   14.8400  -25.0600    0.0000 C   0  0  0  0  0  0  0  0  0  0  0  0
   15.1221  -17.9926    0.0000 C   0  0  0  0  0  0  0  0  0  0  0  0
   15.1221  -16.5924    0.0000 C   0  0  0  0  0  0  0  0  0  0  0  0
   16.3123  -15.8923    0.0000 C   0  0  0  0  0  0  0  0  0  0  0  0
   17.5025  -16.5924    0.0000 C   0  0  0  0  0  0  0  0  0  0  0  0
   17.5025  -17.9926    0.0000 C   0  0  0  0  0  0  0  0  0  0  0  0
   16.3123  -18.6927    0.0000 N   0  0  0  0  0  0  0  0  0  0  0  0
   16.3123  -14.1419    0.0000 C   0  0  0  0  0  0  0  0  0  0  0  0
   15.1221  -13.4418    0.0000 C   0  0  0  0  0  0  0  0  0  0  0  0
   15.1221  -12.0416    0.0000 C   0  0  0  0  0  0  0  0  0  0  0  0
   16.3123  -11.3415    0.0000 C   0  0  0  0  0  0  0  0  0  0  0  0
   17.5025  -12.0416    0.0000 C   0  0  0  0  0  0  0  0  0  0  0  0
   17.5025  -13.4418    0.0000 C   0  0  0  0  0  0  0  0  0  0  0  0
   13.9320  -18.6927    0.0000 N   0  0  0  0  0  0  0  0  0  0  0  0
   13.9320  -20.0928    0.0000 C   0  0  0  0  0  0  0  0  0  0  0  0
   12.7418  -20.7929    0.0000 C   0  0  0  0  0  0  0  0  0  0  0  0
   11.5516  -20.0928    0.0000 N   0  0  0  0  0  0  0  0  0  0  0  0
   11.5516  -18.6927    0.0000 C   0  0  0  0  0  0  0  0  0  0  0  0
   12.7418  -17.9926    0.0000 C   0  0  0  0  0  0  0  0  0  0  0  0
   13.9320  -14.1419    0.0000 C   0  0  0  0  0  0  0  0  0  0  0  0
   18.7627  -15.8923    0.0000 N   0  0  0  0  0  0  0  0  0  0  0  0
   19.9528  -16.5924    0.0000 C   0  0  0  0  0  0  0  0  0  0  0  0
   18.7627  -14.5621    0.0000 C   0  0  0  0  0  0  0  0  0  0  0  0
   21.0730  -15.8923    0.0000 C   0  0  0  0  0  0  0  0  0  0  0  0
   19.9528  -17.9926    0.0000 O   0  0  0  0  0  0  0  0  0  0  0  0
   22.2632  -16.5924    0.0000 C   0  0  0  0  0  0  0  0  0  0  0  0
   23.4533  -15.8923    0.0000 C   0  0  0  0  0  0  0  0  0  0  0  0
   24.6435  -16.5924    0.0000 C   0  0  0  0  0  0  0  0  0  0  0  0
   24.6435  -17.9926    0.0000 C   0  0  0  0  0  0  0  0  0  0  0  0
   23.4533  -18.6927    0.0000 C   0  0  0  0  0  0  0  0  0  0  0  0
   22.2632  -17.9926    0.0000 C   0  0  0  0  0  0  0  0  0  0  0  0
   19.8828  -15.2622    0.0000 C   0  0  0  0  0  0  0  0  0  0  0  0
   22.2632  -15.1922    0.0000 C   0  0  0  0  0  0  0  0  0  0  0  0
   23.4533  -20.0928    0.0000 C   0  0  0  0  0  0  0  0  0  0  0  0
   25.8337  -15.8923    0.0000 C   0  0  0  0  0  0  0  0  0  0  0  0
   27.0238  -15.1922    0.0000 F   0  0  0  0  0  0  0  0  0  0  0  0
   25.1336  -14.7021    0.0000 F   0  0  0  0  0  0  0  0  0  0  0  0
   26.5338  -17.0824    0.0000 F   0  0  0  0  0  0  0  0  0  0  0  0
   23.4533  -21.4230    0.0000 F   0  0  0  0  0  0  0  0  0  0  0  0
   22.1231  -20.0928    0.0000 F   0  0  0  0  0  0  0  0  0  0  0  0
   24.8535  -20.0928    0.0000 F   0  0  0  0  0  0  0  0  0  0  0  0
   10.2915  -20.7929    0.0000 C   0  0  0  0  0  0  0  0  0  0  0  0
   11.5344  -21.4899    0.0000 C   0  0  0  0  0  0  0  0  0  0  0  0
    9.0884  -20.0716    0.0000 O   0  0  0  0  0  0  0  0  0  0  0  0
    7.8658  -20.7509    0.0000 P   0  0  0  0  0  0  0  0  0  0  0  0
    6.6534  -21.4509    0.0000 O   0  0  0  0  0  0  0  0  0  0  0  0
    7.1658  -19.5384    0.0000 O   0  0  0  0  0  0  0  0  0  0  0  0
    8.5658  -21.9633    0.0000 O   0  0  0  0  0  0  0  0  0  0  0  0
   31.1604  -19.2289    0.0000 N   0  0  0  0  0  0  0  0  0  0  0  0
   32.5639  -19.2289    0.0000 C   0  0  0  0  0  0  0  0  0  0  0  0
   33.2656  -18.0359    0.0000 C   0  0  0  0  0  0  0  0  0  0  0  0
   32.5639  -16.8429    0.0000 C   0  0  0  0  0  0  0  0  0  0  0  0
   31.1604  -16.8427    0.0000 C   0  0  0  0  0  0  0  0  0  0  0  0
   30.4586  -17.9657    0.0000 C   0  0  0  0  0  0  0  0  0  0  0  0
   33.2656  -15.6499    0.0000 C   0  0  0  0  0  0  0  0  0  0  0  0
   32.5639  -14.3868    0.0000 C   0  0  0  0  0  0  0  0  0  0  0  0
   31.2306  -14.3868    0.0000 C   0  0  0  0  0  0  0  0  0  0  0  0
   30.5288  -15.5798    0.0000 C   0  0  0  0  0  0  0  0  0  0  0  0
   34.6691  -18.0359    0.0000 C   0  0  0  0  0  0  0  0  0  0  0  0
   35.3709  -16.8429    0.0000 C   0  0  0  0  0  0  0  0  0  0  0  0
   34.6691  -15.6499    0.0000 C   0  0  0  0  0  0  0  0  0  0  0  0
   33.2656  -20.4218    0.0000 O   0  0  0  0  0  0  0  0  0  0  0  0
   29.6867  -18.6675    0.0000 C   0  0  0  0  0  0  0  0  0  0  0  0
   29.0551  -19.6499    0.0000 C   0  0  0  0  0  0  0  0  0  0  0  0
   27.5814  -18.8078    0.0000 N   0  0  0  0  0  0  0  0  0  0  0  0
   27.5814  -17.5447    0.0000 C   0  0  0  0  0  0  0  0  0  0  0  0
   26.0376  -19.5797    0.0000 C   0  0  0  0  0  0  0  0  0  0  0  0
   28.3534  -17.7552    0.0000 C   0  0  0  0  0  0  0  0  0  0  0  0
   28.3534  -16.7727    0.0000 C   0  0  0  0  0  0  0  0  0  0  0  0
   26.7393  -18.4569    0.0000 C   0  0  0  0  0  0  0  0  0  0  0  0
   37.2656  -18.5271    0.0000 Cl  0  0  0  0  0  0  0  0  0  0  0  0
   24.6400  -19.7400    0.0000 N   0  0  0  0  0  0  0  0  0  0  0  0
   26.0400  -19.7400    0.0000 C   0  0  0  0  0  0  0  0  0  0  0  0
   26.7400  -18.5500    0.0000 C   0  0  0  0  0  0  0  0  0  0  0  0
   26.0400  -17.3600    0.0000 C   0  0  0  0  0  0  0  0  0  0  0  0
   24.6400  -17.3600    0.0000 C   0  0  0  0  0  0  0  0  0  0  0  0
   23.9400  -18.4800    0.0000 C   0  0  0  0  0  0  0  0  0  0  0  0
   26.7400  -16.1700    0.0000 C   0  0  0  0  0  0  0  0  0  0  0  0
   26.0400  -14.9100    0.0000 C   0  0  0  0  0  0  0  0  0  0  0  0
   24.7100  -14.9100    0.0000 C   0  0  0  0  0  0  0  0  0  0  0  0
   24.0100  -16.1000    0.0000 C   0  0  0  0  0  0  0  0  0  0  0  0
   28.1400  -18.5500    0.0000 C   0  0  0  0  0  0  0  0  0  0  0  0
   28.8400  -17.3600    0.0000 C   0  0  0  0  0  0  0  0  0  0  0  0
   28.1400  -16.1700    0.0000 C   0  0  0  0  0  0  0  0  0  0  0  0
   26.7400  -20.9300    0.0000 O   0  0  0  0  0  0  0  0  0  0  0  0
   23.1700  -19.1800    0.0000 C   0  0  0  0  0  0  0  0  0  0  0  0
   22.5400  -20.1600    0.0000 C   0  0  0  0  0  0  0  0  0  0  0  0
   21.0700  -19.3200    0.0000 N   0  0  0  0  0  0  0  0  0  0  0  0
   21.0700  -18.0600    0.0000 C   0  0  0  0  0  0  0  0  0  0  0  0
   19.5300  -20.0900    0.0000 C   0  0  0  0  0  0  0  0  0  0  0  0
   21.8400  -18.2700    0.0000 C   0  0  0  0  0  0  0  0  0  0  0  0
   21.8400  -17.2900    0.0000 C   0  0  0  0  0  0  0  0  0  0  0  0
   20.2300  -18.9700    0.0000 C   0  0  0  0  0  0  0  0  0  0  0  0
  1  2  2  0
  2  3  1  0
  3  4  2  0
  4  5  1  0
  5  6  2  0
  1  6  1  0
  3  7  1  0
  7  8  2  0
  8  9  1  0
  9 10  2  0
 10 11  1  0
 11 12  2  0
  7 12  1  0
  1 13  1  0
 13 14  1  0
 14 15  1  0
 15 16  1  0
 16 17  1  0
 17 18  1  0
 13 18  1  0
  8 19  1  0
  4 20  1  0
 20 21  1  0
 20 22  1  0
 21 23  1  0
 21 24  2  0
 23 25  1  0
 25 26  2  0
 26 27  1  0
 27 28  2  0
 28 29  1  0
 29 30  2  0
 25 30  1  0
 23 31  1  0
 23 32  1  0
 29 33  1  0
 27 34  1  0
 34 35  1  0
 34 36  1  0
 34 37  1  0
 33 38  1  0
 33 39  1  0
 33 40  1  0
 16 41  1  0
 42 43  2  0
 43 44  1  0
 44 45  2  0
 45 46  1  0
 46 47  2  0
 42 47  1  0
 44 48  1  0
 48 49  2  0
 49 50  1  0
 50 51  2  0
 51 52  1  0
 52 53  2  0
 48 53  1  0
 42 54  1  0
 54 55  1  0
 55 56  1  0
 56 57  1  0
 57 58  1  0
 58 59  1  0
 54 59  1  0
 49 60  1  0
 45 61  1  0
 61 62  1  0
 61 63  1  0
 62 64  1  0
 62 65  2  0
 64 66  1  0
 66 67  2  0
 67 68  1  0
 68 69  2  0
 69 70  1  0
 70 71  2  0
 66 71  1  0
 64 72  1  0
 64 73  1  0
 70 74  1  0
 68 75  1  0
 75 76  1  0
 75 77  1  0
 75 78  1  0
 74 79  1  0
 74 80  1  0
 74 81  1  0
 57 82  1  0
 57 83  1  0
 82 84  1  0
 84 85  1  0
 85 86  2  0
 85 87  1  0
 85 88  1  0
 89 90  1  0
 90 91  1  0
 91 92  2  0
 92 93  1  0
 93 94  1  1
 89 94  1  0
 92 95  1  0
 95 96  1  0
 96 97  1  0
 97 98  1  0
 93 98  1  0
 91 99  1  0
 99100  2  0
100101  1  0
101 95  2  0
 90102  2  0
104105  1  0
104103  1  0
105106  1  0
105107  1  0
103108  1  0
106109  1  0
107110  1  0
108109  1  0
108110  1  0
103 89  1  6
112113  1  0
113114  1  0
114115  2  0
115116  1  0
116117  1  1
112117  1  0
115118  1  0
118119  1  0
119120  1  0
120121  1  0
116121  1  0
114122  1  0
122123  2  0
123124  1  0
124118  2  0
113125  2  0
127128  1  0
127126  1  0
128129  1  0
128130  1  0
126131  1  0
129132  1  0
130133  1  0
131132  1  0
131133  1  0
126112  1  6
M  CHG  2  57   1  88  -1
M  END
