 
     RDKit          2D

 52 53  0  0  1  0  0  0  0  0999 V2000
   22.7083  -13.1828    0.0000 C   0  0  0  0  0  0  0  0  0  0  0  0
   22.7024  -14.5595    0.0000 C   0  0  0  0  0  0  0  0  0  0  0  0
   23.8982  -12.5004    0.0000 S   0  0  0  0  0  0  0  0  0  0  0  0
   21.3899  -12.7628    0.0000 S   0  0  0  0  0  0  0  0  0  0  0  0
   23.8982  -15.2479    0.0000 C   0  0  0  0  0  0  0  0  0  0  0  0
   21.3957  -14.9854    0.0000 C   0  0  0  0  0  0  0  0  0  0  0  0
   25.0825  -13.1828    0.0000 N   0  0  0  0  0  0  0  0  0  0  0  0
   22.6383  -11.5902    0.0000 O   0  0  0  0  0  0  0  0  0  0  0  0
   25.0067  -11.6602    0.0000 O   0  0  0  0  0  0  0  0  0  0  0  0
   20.5849  -13.8828    0.0000 C   0  0  0  0  0  0  0  0  0  0  0  0
   25.0825  -14.5595    0.0000 C   0  0  0  0  0  0  0  0  0  0  0  0
   23.8982  -16.6246    0.0000 N   0  0  0  0  0  0  0  0  0  0  0  0
   26.2784  -12.5004    0.0000 C   0  0  0  0  0  0  0  0  0  0  0  0
   19.2140  -13.8828    0.0000 S   0  0  0  0  0  0  0  0  0  0  0  0
   25.0884  -17.3073    0.0000 C   0  0  0  0  0  0  0  0  0  0  0  0
   27.4919  -13.2062    0.0000 C   0  0  0  0  0  0  0  0  0  0  0  0
   19.1614  -15.4812    0.0000 N   0  0  0  0  0  0  0  0  0  0  0  0
   19.1614  -12.5004    0.0000 O   0  0  0  0  0  0  0  0  0  0  0  0
   17.7730  -13.8887    0.0000 O   0  0  0  0  0  0  0  0  0  0  0  0
   25.0942  -18.6839    0.0000 C   0  0  0  0  0  0  0  0  0  0  0  0
   28.7052  -12.5004    0.0000 C   0  0  0  0  0  0  0  0  0  0  0  0
   29.9185  -13.2062    0.0000 O   0  0  0  0  0  0  0  0  0  0  0  0
   31.1261  -12.5004    0.0000 C   0  0  0  0  0  0  0  0  0  0  0  0
   27.1995  -15.4829    0.0000 C   0  0  0  0  0  0  0  0  0  0  0  0
   25.5020  -15.4829    0.0000 C   0  0  0  0  0  0  0  0  0  0  0  0
   27.8361  -16.6145    0.0000 C   0  0  0  0  0  0  0  0  0  0  0  0
   24.8653  -16.6852    0.0000 C   0  0  0  0  0  0  0  0  0  0  0  0
   27.1995  -17.8170    0.0000 O   0  0  0  0  0  0  0  0  0  0  0  0
   29.2508  -16.6145    0.0000 O   0  0  0  0  0  0  0  0  0  0  0  0
   23.4508  -16.6852    0.0000 O   0  0  0  0  0  0  0  0  0  0  0  0
   25.5020  -17.8170    0.0000 O   0  0  0  0  0  0  0  0  0  0  0  0
   14.1400  -15.9600    0.0000 C   0  0  0  0  0  0  0  0  0  0  0  0
   15.3300  -16.6600    0.0000 C   0  0  0  0  0  0  0  0  0  0  0  0
   12.9500  -16.6600    0.0000 O   0  0  0  0  0  0  0  0  0  0  0  0
   16.5200  -15.9600    0.0000 C   0  0  0  0  0  0  0  0  0  0  0  0
   17.7100  -16.6600    0.0000 N   0  0  0  0  0  0  0  0  0  0  0  0
   18.9000  -15.9600    0.0000 C   0  0  0  0  0  0  0  0  0  0  0  0
   20.1600  -16.6600    0.0000 C   0  0  0  0  0  0  0  0  0  0  0  0
   18.9000  -14.5600    0.0000 C   0  0  0  0  0  0  0  0  0  0  0  0
   20.1600  -15.2600    0.0000 C   0  0  0  0  0  0  0  0  0  0  0  0
   15.3300  -18.0600    0.0000 O   0  0  0  0  0  0  0  0  0  0  0  0
   12.9500  -18.0600    0.0000 C   0  0  0  0  0  0  0  0  0  0  0  0
   11.8300  -18.9700    0.0000 C   0  0  0  0  0  0  0  0  0  0  0  0
   12.2500  -20.2300    0.0000 N   0  0  0  0  0  0  0  0  0  0  0  0
   13.6500  -20.2300    0.0000 S   0  0  0  0  0  0  0  0  0  0  0  0
   14.0700  -18.9700    0.0000 N   0  0  0  0  0  0  0  0  0  0  0  0
    8.1200  -16.8000    0.0000 O   0  0  0  0  0  0  0  0  0  0  0  0
    8.1200  -18.2700    0.0000 C   0  0  0  0  0  0  0  0  0  0  0  0
    9.3100  -18.9700    0.0000 C   0  0  0  0  0  0  0  0  0  0  0  0
   10.5700  -18.2700    0.0000 N   0  0  0  0  0  0  0  0  0  0  0  0
   10.5700  -16.8000    0.0000 C   0  0  0  0  0  0  0  0  0  0  0  0
    9.3100  -16.1000    0.0000 C   0  0  0  0  0  0  0  0  0  0  0  0
  1  2  2  0
  1  3  1  0
  1  4  1  0
  2  5  1  0
  2  6  1  0
  3  7  1  0
  3  8  2  0
  3  9  2  0
  4 10  1  0
  5 11  1  0
  5 12  1  6
  7 13  1  0
 10 14  1  0
 12 15  1  0
 13 16  1  0
 14 17  1  0
 14 18  2  0
 14 19  2  0
 15 20  1  0
 16 21  1  0
 21 22  1  0
 22 23  1  0
  6 10  2  0
  7 11  1  0
 24 25  2  0
 24 26  1  0
 25 27  1  0
 26 28  1  0
 26 29  2  0
 27 30  1  0
 27 31  2  0
 32 33  1  0
 32 34  1  0
 33 35  1  0
 35 36  1  0
 36 37  1  0
 37 38  1  0
 37 39  1  0
 37 40  1  0
 33 41  1  6
 34 42  1  0
 42 43  1  0
 43 44  2  0
 44 45  1  0
 45 46  1  0
 42 46  2  0
 47 48  1  0
 48 49  1  0
 49 50  1  0
 50 51  1  0
 51 52  1  0
 47 52  1  0
 50 43  1  0
M  END
