 
     RDKit          2D

 37 38  0  0  1  0  0  0  0  0999 V2000
   18.6900  -19.3200    0.0000 C   0  0  0  0  0  0  0  0  0  0  0  0
   20.0200  -19.3200    0.0000 C   0  0  0  0  0  0  0  0  0  0  0  0
   20.4400  -18.0600    0.0000 C   0  0  0  0  0  0  0  0  0  0  0  0
   19.3900  -17.2200    0.0000 O   0  0  0  0  0  0  0  0  0  0  0  0
   18.2700  -18.0600    0.0000 C   0  0  0  0  0  0  0  0  0  0  0  0
   17.9200  -20.4400    0.0000 O   0  0  0  0  0  0  0  0  0  0  0  0
   17.0100  -17.6400    0.0000 C   0  0  0  0  0  0  0  0  0  0  0  0
   16.0300  -18.5500    0.0000 O   0  0  0  0  0  0  0  0  0  0  0  0
   21.7700  -17.6400    0.0000 N   0  0  0  0  0  0  0  0  0  0  0  0
   21.7700  -16.2400    0.0000 C   0  0  0  0  0  0  0  0  0  0  0  0
   22.9600  -18.3400    0.0000 C   0  0  0  0  0  0  0  0  0  0  0  0
   24.2200  -17.6400    0.0000 N   0  0  0  0  0  0  0  0  0  0  0  0
   24.2200  -16.2400    0.0000 C   0  0  0  0  0  0  0  0  0  0  0  0
   22.9600  -15.5400    0.0000 C   0  0  0  0  0  0  0  0  0  0  0  0
   22.9600  -14.1400    0.0000 C   0  0  0  0  0  0  0  0  0  0  0  0
   25.4100  -15.5400    0.0000 O   0  0  0  0  0  0  0  0  0  0  0  0
   22.9600  -19.7400    0.0000 O   0  0  0  0  0  0  0  0  0  0  0  0
   22.9600  -12.7400    0.0000 F   0  0  0  0  0  0  0  0  0  0  0  0
   21.5600  -14.1400    0.0000 F   0  0  0  0  0  0  0  0  0  0  0  0
   24.3600  -14.1400    0.0000 F   0  0  0  0  0  0  0  0  0  0  0  0
   18.1627  -16.9557    0.0000 C   0  0  0  0  0  0  0  0  0  0  0  0
   18.1627  -15.5435    0.0000 C   0  0  0  0  0  0  0  0  0  0  0  0
   19.3631  -14.8374    0.0000 C   0  0  0  0  0  0  0  0  0  0  0  0
   20.6340  -15.5435    0.0000 N   0  0  0  0  0  0  0  0  0  0  0  0
   20.6340  -16.9557    0.0000 C   0  0  0  0  0  0  0  0  0  0  0  0
   19.3631  -17.6618    0.0000 N   0  0  0  0  0  0  0  0  0  0  0  0
   21.8344  -17.6618    0.0000 O   0  0  0  0  0  0  0  0  0  0  0  0
   19.3631  -13.4252    0.0000 O   0  0  0  0  0  0  0  0  0  0  0  0
   16.9623  -14.8374    0.0000 Cl  0  0  0  0  0  0  0  0  0  0  0  0
   16.9623  -17.6618    0.0000 C   0  0  0  0  0  0  0  0  0  0  0  0
   15.7618  -16.9557    0.0000 N   0  0  0  0  0  0  0  0  0  0  0  0
   14.4908  -17.5206    0.0000 C   0  0  0  0  0  0  0  0  0  0  0  0
   13.5729  -16.5320    0.0000 C   0  0  0  0  0  0  0  0  0  0  0  0
   14.2084  -15.3316    0.0000 C   0  0  0  0  0  0  0  0  0  0  0  0
   15.6206  -15.6141    0.0000 C   0  0  0  0  0  0  0  0  0  0  0  0
   14.4908  -18.9329    0.0000 N   0  0  0  0  0  0  0  0  0  0  0  0
   23.6601  -18.9701    0.0000 Cl  0  0  0  0  0  0  0  0  0  0  0  0
  1  2  1  0
  2  3  1  0
  3  4  1  0
  4  5  1  0
  1  5  1  0
  1  6  1  6
  5  7  1  1
  7  8  1  0
  3  9  1  1
 10  9  1  0
 11 12  1  0
 12 13  1  0
 13 14  1  0
 10 14  2  0
 14 15  1  0
 13 16  2  0
 11 17  2  0
 15 18  1  0
 15 19  1  0
 15 20  1  0
 11  9  1  0
 21 22  2  0
 22 23  1  0
 23 24  1  0
 24 25  1  0
 25 26  1  0
 21 26  1  0
 25 27  2  0
 23 28  2  0
 22 29  1  0
 21 30  1  0
 30 31  1  0
 31 32  1  0
 32 33  1  0
 33 34  1  0
 34 35  1  0
 31 35  1  0
 32 36  2  0
M  END
