 
     RDKit          2D

 60 63  0  0  1  0  0  0  0  0999 V2000
   21.9223  -14.0768    0.0000 N   0  0  0  0  0  0  0  0  0  0  0  0
   20.7116  -14.7786    0.0000 C   0  0  0  0  0  0  0  0  0  0  0  0
   23.1271  -14.7786    0.0000 C   0  0  0  0  0  0  0  0  0  0  0  0
   21.9164  -12.6791    0.0000 C   0  0  0  0  0  0  0  0  0  0  0  0
   19.5011  -14.0768    0.0000 C   0  0  0  0  0  0  0  0  0  0  0  0
   20.7116  -16.1766    0.0000 C   0  0  0  0  0  0  0  0  0  0  0  0
   24.3378  -14.0827    0.0000 C   0  0  0  0  0  0  0  0  0  0  0  0
   23.1271  -11.9773    0.0000 C   0  0  0  0  0  0  0  0  0  0  0  0
   19.5011  -12.6791    0.0000 C   0  0  0  0  0  0  0  0  0  0  0  0
   18.2904  -14.7786    0.0000 C   0  0  0  0  0  0  0  0  0  0  0  0
   19.5011  -16.8782    0.0000 O   0  0  0  0  0  0  0  0  0  0  0  0
   21.9223  -16.8725    0.0000 O   0  0  0  0  0  0  0  0  0  0  0  0
   24.3378  -12.6791    0.0000 C   0  0  0  0  0  0  0  0  0  0  0  0
   25.6771  -14.5154    0.0000 C   0  0  0  0  0  0  0  0  0  0  0  0
   18.2904  -11.9773    0.0000 C   0  0  0  0  0  0  0  0  0  0  0  0
   20.7116  -11.9773    0.0000 Cl  0  0  0  0  0  0  0  0  0  0  0  0
   17.0797  -14.0768    0.0000 C   0  0  0  0  0  0  0  0  0  0  0  0
   18.2904  -16.1766    0.0000 C   0  0  0  0  0  0  0  0  0  0  0  0
   25.6712  -12.2405    0.0000 S   0  0  0  0  0  0  0  0  0  0  0  0
   26.5018  -13.3751    0.0000 C   0  0  0  0  0  0  0  0  0  0  0  0
   17.0797  -12.6791    0.0000 C   0  0  0  0  0  0  0  0  0  0  0  0
   29.6520  -14.3900    0.0000 S   0  0  0  0  0  0  0  0  0  0  0  0
   29.6520  -12.9900    0.0000 O   0  0  0  0  0  0  0  0  0  0  0  0
   29.6520  -15.7900    0.0000 O   0  0  0  0  0  0  0  0  0  0  0  0
   28.2519  -14.3900    0.0000 O   0  0  0  0  0  0  0  0  0  0  0  0
   31.0519  -14.3900    0.0000 O   0  0  0  0  0  0  0  0  0  0  0  0
   24.2900  -17.5700    0.0000 N   0  0  0  0  0  0  0  0  0  0  0  0
   23.1000  -18.2700    0.0000 C   0  0  0  0  0  0  0  0  0  0  0  0
   25.4800  -18.2700    0.0000 C   0  0  0  0  0  0  0  0  0  0  0  0
   24.2900  -16.1700    0.0000 C   0  0  0  0  0  0  0  0  0  0  0  0
   21.9100  -17.5700    0.0000 C   0  0  0  0  0  0  0  0  0  0  0  0
   23.1000  -19.6700    0.0000 C   0  0  0  0  0  0  0  0  0  0  0  0
   26.7400  -17.5700    0.0000 C   0  0  0  0  0  0  0  0  0  0  0  0
   25.4800  -15.4700    0.0000 C   0  0  0  0  0  0  0  0  0  0  0  0
   21.9100  -16.1700    0.0000 C   0  0  0  0  0  0  0  0  0  0  0  0
   20.6500  -18.2700    0.0000 C   0  0  0  0  0  0  0  0  0  0  0  0
   21.9100  -20.3700    0.0000 O   0  0  0  0  0  0  0  0  0  0  0  0
   24.2900  -20.3700    0.0000 O   0  0  0  0  0  0  0  0  0  0  0  0
   26.7400  -16.1700    0.0000 C   0  0  0  0  0  0  0  0  0  0  0  0
   28.0700  -17.9900    0.0000 C   0  0  0  0  0  0  0  0  0  0  0  0
   20.6500  -15.4700    0.0000 C   0  0  0  0  0  0  0  0  0  0  0  0
   23.1000  -15.4700    0.0000 Cl  0  0  0  0  0  0  0  0  0  0  0  0
   19.4600  -17.5700    0.0000 C   0  0  0  0  0  0  0  0  0  0  0  0
   20.6500  -19.6700    0.0000 C   0  0  0  0  0  0  0  0  0  0  0  0
   28.0700  -15.7500    0.0000 S   0  0  0  0  0  0  0  0  0  0  0  0
   28.9100  -16.8700    0.0000 C   0  0  0  0  0  0  0  0  0  0  0  0
   19.4600  -16.1700    0.0000 C   0  0  0  0  0  0  0  0  0  0  0  0
   20.2981  -15.8105    0.0000 C   0  0  0  0  0  0  0  0  0  0  0  0
   21.5226  -16.5029    0.0000 C   0  0  0  0  0  0  0  0  0  0  0  0
   19.0928  -16.5029    0.0000 C   0  0  0  0  0  0  0  0  0  0  0  0
   20.2981  -14.6227    0.0000 C   0  0  0  0  0  0  0  0  0  0  0  0
   21.5226  -17.9133    0.0000 C   0  0  0  0  0  0  0  0  0  0  0  0
   22.7278  -15.8040    0.0000 O   0  0  0  0  0  0  0  0  0  0  0  0
   19.0928  -17.9133    0.0000 C   0  0  0  0  0  0  0  0  0  0  0  0
   21.5033  -13.9240    0.0000 O   0  0  0  0  0  0  0  0  0  0  0  0
   19.0863  -13.9304    0.0000 O   0  0  0  0  0  0  0  0  0  0  0  0
   20.2981  -18.6250    0.0000 C   0  0  0  0  0  0  0  0  0  0  0  0
   23.9396  -16.4964    0.0000 C   0  0  0  0  0  0  0  0  0  0  0  0
   25.1450  -15.7977    0.0000 C   0  0  0  0  0  0  0  0  0  0  0  0
   23.9396  -17.8942    0.0000 O   0  0  0  0  0  0  0  0  0  0  0  0
  2  5  1  0
  2  6  1  0
  3  7  1  0
  4  8  1  0
  5  9  2  0
  5 10  1  0
  6 11  1  0
  6 12  2  0
  7 13  2  0
  7 14  1  0
  9 15  1  0
  9 16  1  0
 10 17  2  0
 11 18  1  0
 13 19  1  0
 14 20  2  0
 15 21  2  0
  8 13  1  0
 17 21  1  0
 19 20  1  0
  2  1  1  6
  1  3  1  0
  1  4  1  0
 22 23  2  0
 22 24  2  0
 22 25  1  0
 22 26  1  0
 28 31  1  0
 28 32  1  0
 29 33  1  0
 30 34  1  0
 31 35  2  0
 31 36  1  0
 32 37  1  0
 32 38  2  0
 33 39  2  0
 33 40  1  0
 35 41  1  0
 35 42  1  0
 36 43  2  0
 37 44  1  0
 39 45  1  0
 40 46  2  0
 41 47  2  0
 34 39  1  0
 43 47  1  0
 45 46  1  0
 28 27  1  6
 27 29  1  0
 27 30  1  0
 48 49  2  0
 48 50  1  0
 48 51  1  0
 49 52  1  0
 49 53  1  0
 50 54  2  0
 51 55  1  0
 51 56  2  0
 52 57  2  0
 53 58  1  0
 58 59  1  0
 58 60  2  0
 54 57  1  0
M  END
