 
     RDKit          2D

 41 43  0  0  0  0  0  0  0  0999 V2000
   17.3600  -17.1500    0.0000 O   0  0  0  0  0  0  0  0  0  0  0  0
   18.5500  -16.4500    0.0000 C   0  0  0  0  0  0  0  0  0  0  0  0
   19.8100  -17.1500    0.0000 C   0  0  0  0  0  0  0  0  0  0  0  0
   21.0000  -16.4500    0.0000 C   0  0  0  0  0  0  0  0  0  0  0  0
   19.8100  -18.5500    0.0000 O   0  0  0  0  0  0  0  0  0  0  0  0
   22.1900  -17.0800    0.0000 N   0  0  0  0  0  0  0  0  0  0  0  0
   23.3800  -16.3800    0.0000 C   0  0  0  0  0  0  0  0  0  0  0  0
   24.6400  -17.0800    0.0000 C   0  0  0  0  0  0  0  0  0  0  0  0
   23.3800  -14.9800    0.0000 C   0  0  0  0  0  0  0  0  0  0  0  0
   17.3600  -18.5500    0.0000 C   0  0  0  0  0  0  0  0  0  0  0  0
   16.1476  -19.2500    0.0000 C   0  0  0  0  0  0  0  0  0  0  0  0
   16.1476  -20.6500    0.0000 C   0  0  0  0  0  0  0  0  0  0  0  0
   17.3600  -21.3500    0.0000 C   0  0  0  0  0  0  0  0  0  0  0  0
   18.5724  -20.6500    0.0000 C   0  0  0  0  0  0  0  0  0  0  0  0
   18.5724  -19.2500    0.0000 C   0  0  0  0  0  0  0  0  0  0  0  0
   17.3600  -22.7500    0.0000 C   0  0  0  0  0  0  0  0  0  0  0  0
   16.1476  -23.4500    0.0000 C   0  0  0  0  0  0  0  0  0  0  0  0
   14.9521  -22.7596    0.0000 N   0  0  0  0  0  0  0  0  0  0  0  0
   16.1475  -24.8498    0.0000 O   0  0  0  0  0  0  0  0  0  0  0  0
    7.3500  -17.0800    0.0000 C   0  0  0  0  0  0  0  0  0  0  0  0
    7.3500  -18.4800    0.0000 C   0  0  0  0  0  0  0  0  0  0  0  0
    8.5624  -19.1800    0.0000 C   0  0  0  0  0  0  0  0  0  0  0  0
    9.7749  -18.4800    0.0000 C   0  0  0  0  0  0  0  0  0  0  0  0
    9.7749  -17.0800    0.0000 C   0  0  0  0  0  0  0  0  0  0  0  0
    8.5624  -16.3800    0.0000 C   0  0  0  0  0  0  0  0  0  0  0  0
   12.1997  -18.4800    0.0000 C   0  0  0  0  0  0  0  0  0  0  0  0
   12.1997  -17.0800    0.0000 C   0  0  0  0  0  0  0  0  0  0  0  0
   10.9873  -16.3800    0.0000 C   0  0  0  0  0  0  0  0  0  0  0  0
   13.4122  -19.1800    0.0000 C   0  0  0  0  0  0  0  0  0  0  0  0
   14.6246  -18.4800    0.0000 C   0  0  0  0  0  0  0  0  0  0  0  0
   14.6246  -17.0800    0.0000 C   0  0  0  0  0  0  0  0  0  0  0  0
   13.4122  -16.3800    0.0000 C   0  0  0  0  0  0  0  0  0  0  0  0
   15.8411  -19.1823    0.0000 Cl  0  0  0  0  0  0  0  0  0  0  0  0
   15.8411  -16.3777    0.0000 S   0  0  0  0  0  0  0  0  0  0  0  0
   17.0535  -15.6777    0.0000 N   0  0  0  0  0  0  0  0  0  0  0  0
   15.1370  -15.1579    0.0000 O   0  0  0  0  0  0  0  0  0  0  0  0
   16.5367  -17.5827    0.0000 O   0  0  0  0  0  0  0  0  0  0  0  0
   10.4862  -15.0106    0.0000 N   0  0  0  0  0  0  0  0  0  0  0  0
    9.0239  -15.0042    0.0000 C   0  0  0  0  0  0  0  0  0  0  0  0
   12.1997  -15.6800    0.0000 O   0  0  0  0  0  0  0  0  0  0  0  0
    8.0160  -14.0147    0.0000 O   0  0  0  0  0  0  0  0  0  0  0  0
  1  2  1  0
  2  3  1  0
  3  4  1  0
  3  5  1  0
  4  6  1  0
  6  7  1  0
  7  8  1  0
  7  9  1  0
  1 10  1  0
 10 11  2  0
 11 12  1  0
 12 13  2  0
 13 14  1  0
 14 15  2  0
 10 15  1  0
 13 16  1  0
 16 17  1  0
 17 18  1  0
 17 19  2  0
 20 21  2  0
 21 22  1  0
 22 23  2  0
 23 24  1  0
 24 25  2  0
 20 25  1  0
 26 27  2  0
 27 28  1  0
 24 28  1  0
 26 29  1  0
 29 30  2  0
 30 31  1  0
 31 32  2  0
 27 32  1  0
 30 33  1  0
 31 34  1  0
 34 35  1  0
 34 36  2  0
 34 37  2  0
 28 38  1  0
 38 39  1  0
 39 25  1  0
 28 40  1  0
 39 41  2  0
M  END
