 
     RDKit          2D

 81 83  0  0  1  0  0  0  0  0999 V2000
   22.7500  -16.2400    0.0000 C   0  0  0  0  0  0  0  0  0  0  0  0
   22.7500  -17.6400    0.0000 C   0  0  0  0  0  0  0  0  0  0  0  0
   23.9400  -18.3400    0.0000 C   0  0  0  0  0  0  0  0  0  0  0  0
   25.1300  -17.6400    0.0000 C   0  0  0  0  0  0  0  0  0  0  0  0
   25.1300  -16.2400    0.0000 C   0  0  0  0  0  0  0  0  0  0  0  0
   23.9400  -15.5400    0.0000 O   0  0  0  0  0  0  0  0  0  0  0  0
   26.3900  -15.5400    0.0000 S   0  0  0  0  0  0  0  0  0  0  0  0
   26.3900  -14.1400    0.0000 C   0  0  0  0  0  0  0  0  0  0  0  0
   26.3900  -18.3400    0.0000 O   0  0  0  0  0  0  0  0  0  0  0  0
   23.9400  -19.7400    0.0000 O   0  0  0  0  0  0  0  0  0  0  0  0
   21.4900  -18.3400    0.0000 O   0  0  0  0  0  0  0  0  0  0  0  0
   21.4900  -15.5400    0.0000 C   0  0  0  0  0  0  0  0  0  0  0  0
   20.3000  -16.2400    0.0000 N   0  0  0  0  0  0  0  0  0  0  0  0
   21.4900  -14.1400    0.0000 C   0  0  0  0  0  0  0  0  0  0  0  0
   20.3000  -13.4400    0.0000 Cl  0  0  0  0  0  0  0  0  0  0  0  0
   22.7500  -13.4400    0.0000 C   0  0  0  0  0  0  0  0  0  0  0  0
   19.1100  -15.5400    0.0000 C   0  0  0  0  0  0  0  0  0  0  0  0
   17.8500  -16.2400    0.0000 C   0  0  0  0  0  0  0  0  0  0  0  0
   19.1100  -14.1400    0.0000 O   0  0  0  0  0  0  0  0  0  0  0  0
   16.7300  -15.4700    0.0000 N   0  0  0  0  0  0  0  0  0  0  0  0
   15.6100  -16.2400    0.0000 C   0  0  0  0  0  0  0  0  0  0  0  0
   16.1000  -17.5700    0.0000 C   0  0  0  0  0  0  0  0  0  0  0  0
   17.4300  -17.5700    0.0000 C   0  0  0  0  0  0  0  0  0  0  0  0
   16.7300  -14.0700    0.0000 C   0  0  0  0  0  0  0  0  0  0  0  0
   15.4000  -18.8300    0.0000 C   0  0  0  0  0  0  0  0  0  0  0  0
   14.0000  -18.8300    0.0000 C   0  0  0  0  0  0  0  0  0  0  0  0
   13.3000  -20.0200    0.0000 C   0  0  0  0  0  0  0  0  0  0  0  0
   27.5800  -17.6400    0.0000 P   0  0  0  0  0  0  0  0  0  0  0  0
   28.7700  -16.9400    0.0000 O   0  0  0  0  0  0  0  0  0  0  0  0
   26.8800  -16.3800    0.0000 O   0  0  0  0  0  0  0  0  0  0  0  0
   28.2800  -18.8300    0.0000 O   0  0  0  0  0  0  0  0  0  0  0  0
   33.2500  -18.7600    0.0000 O   0  0  0  0  0  0  0  0  0  0  0  0
   20.3420  -15.6751    0.0000 C   0  0  0  0  0  0  0  0  0  0  0  0
   20.3420  -17.0766    0.0000 C   0  0  0  0  0  0  0  0  0  0  0  0
   21.5567  -17.7773    0.0000 C   0  0  0  0  0  0  0  0  0  0  0  0
   22.7713  -17.0766    0.0000 C   0  0  0  0  0  0  0  0  0  0  0  0
   22.7713  -15.6751    0.0000 C   0  0  0  0  0  0  0  0  0  0  0  0
   21.5567  -14.9744    0.0000 O   0  0  0  0  0  0  0  0  0  0  0  0
   23.9859  -14.9744    0.0000 S   0  0  0  0  0  0  0  0  0  0  0  0
   23.9859  -13.5730    0.0000 C   0  0  0  0  0  0  0  0  0  0  0  0
   23.9859  -17.7773    0.0000 O   0  0  0  0  0  0  0  0  0  0  0  0
   21.5567  -19.1789    0.0000 O   0  0  0  0  0  0  0  0  0  0  0  0
   19.1275  -17.7773    0.0000 O   0  0  0  0  0  0  0  0  0  0  0  0
   19.1275  -14.9744    0.0000 C   0  0  0  0  0  0  0  0  0  0  0  0
   17.9129  -15.6751    0.0000 N   0  0  0  0  0  0  0  0  0  0  0  0
   19.1275  -13.5730    0.0000 C   0  0  0  0  0  0  0  0  0  0  0  0
   17.9129  -12.8722    0.0000 Cl  0  0  0  0  0  0  0  0  0  0  0  0
   20.3420  -12.8722    0.0000 C   0  0  0  0  0  0  0  0  0  0  0  0
   16.6983  -14.9744    0.0000 C   0  0  0  0  0  0  0  0  0  0  0  0
   15.4837  -15.6751    0.0000 C   0  0  0  0  0  0  0  0  0  0  0  0
   16.6983  -13.5730    0.0000 O   0  0  0  0  0  0  0  0  0  0  0  0
   14.3578  -14.8803    0.0000 N   0  0  0  0  0  0  0  0  0  0  0  0
   13.2387  -15.7030    0.0000 C   0  0  0  0  0  0  0  0  0  0  0  0
   13.6855  -17.0322    0.0000 C   0  0  0  0  0  0  0  0  0  0  0  0
   15.0690  -17.0253    0.0000 C   0  0  0  0  0  0  0  0  0  0  0  0
   14.3578  -13.4808    0.0000 C   0  0  0  0  0  0  0  0  0  0  0  0
   12.9918  -18.2479    0.0000 C   0  0  0  0  0  0  0  0  0  0  0  0
   11.6141  -18.2550    0.0000 C   0  0  0  0  0  0  0  0  0  0  0  0
   10.9162  -19.4785    0.0000 C   0  0  0  0  0  0  0  0  0  0  0  0
   25.2093  -17.0704    0.0000 P   0  0  0  0  0  0  0  0  0  0  0  0
   26.4215  -16.3706    0.0000 O   0  0  0  0  0  0  0  0  0  0  0  0
   24.5068  -15.8540    0.0000 O   0  0  0  0  0  0  0  0  0  0  0  0
   25.9066  -18.2777    0.0000 O   0  0  0  0  0  0  0  0  0  0  0  0
   24.7586  -14.9811    0.0000 O   0  0  0  0  0  0  0  0  0  0  0  0
   23.5472  -14.2789    0.0000 C   0  0  0  0  0  0  0  0  0  0  0  0
   22.3357  -14.9811    0.0000 C   0  0  0  0  0  0  0  0  0  0  0  0
   21.1185  -14.2789    0.0000 C   0  0  0  0  0  0  0  0  0  0  0  0
   22.3357  -16.3798    0.0000 C   0  0  0  0  0  0  0  0  0  0  0  0
   19.9071  -14.9811    0.0000 C   0  0  0  0  0  0  0  0  0  0  0  0
   21.1185  -17.0821    0.0000 C   0  0  0  0  0  0  0  0  0  0  0  0
   19.9071  -16.3798    0.0000 C   0  0  0  0  0  0  0  0  0  0  0  0
   25.9887  -14.2735    0.0000 O   0  0  0  0  0  0  0  0  0  0  0  0
   27.1887  -14.9691    0.0000 C   0  0  0  0  0  0  0  0  0  0  0  0
   27.1865  -16.3797    0.0000 C   0  0  0  0  0  0  0  0  0  0  0  0
   25.9531  -17.0895    0.0000 C   0  0  0  0  0  0  0  0  0  0  0  0
   25.9512  -18.4895    0.0000 C   0  0  0  0  0  0  0  0  0  0  0  0
   27.1626  -19.1912    0.0000 C   0  0  0  0  0  0  0  0  0  0  0  0
   28.3960  -18.4814    0.0000 C   0  0  0  0  0  0  0  0  0  0  0  0
   28.3979  -17.0814    0.0000 C   0  0  0  0  0  0  0  0  0  0  0  0
   23.5472  -12.8803    0.0000 O   0  0  0  0  0  0  0  0  0  0  0  0
   28.3759  -14.2861    0.0000 O   0  0  0  0  0  0  0  0  0  0  0  0
  1  2  1  0
  2  3  1  0
  3  4  1  0
  4  5  1  0
  5  6  1  0
  1  6  1  1
  5  7  1  6
  7  8  1  0
  4  9  1  6
  3 10  1  1
  2 11  1  1
  1 12  1  0
 12 13  1  6
 12 14  1  0
 14 15  1  0
 14 16  1  1
 13 17  1  0
 18 17  1  6
 17 19  2  0
 18 20  1  0
 20 21  1  0
 21 22  1  0
 22 23  1  0
 18 23  1  0
 20 24  1  0
 22 25  1  1
 25 26  1  0
 26 27  1  0
  9 28  1  0
 28 29  1  0
 28 30  2  0
 28 31  1  0
 33 34  1  0
 34 35  1  0
 35 36  1  0
 36 37  1  0
 37 38  1  0
 33 38  1  1
 37 39  1  6
 39 40  1  0
 36 41  1  6
 35 42  1  1
 34 43  1  1
 33 44  1  0
 44 45  1  6
 44 46  1  0
 46 47  1  0
 46 48  1  1
 45 49  1  0
 50 49  1  6
 49 51  2  0
 50 52  1  0
 52 53  1  0
 53 54  1  0
 54 55  1  0
 50 55  1  0
 52 56  1  0
 54 57  1  1
 57 58  1  0
 58 59  1  0
 41 60  1  0
 60 61  1  0
 60 62  2  0
 60 63  1  0
 64 65  1  0
 65 66  1  0
 66 67  2  0
 66 68  1  0
 67 69  1  0
 68 70  2  0
 69 71  2  0
 70 71  1  0
 64 72  1  0
 72 73  1  0
 73 74  1  0
 74 75  2  0
 75 76  1  0
 76 77  2  0
 77 78  1  0
 78 79  2  0
 74 79  1  0
 65 80  2  0
 73 81  2  0
M  END
