 
     RDKit          2D

 62 68  0  0  0  0  0  0  0  0999 V2000
   22.6100  -17.2200    0.0000 C   0  0  0  0  0  0  0  0  0  0  0  0
   23.8000  -16.5200    0.0000 C   0  0  0  0  0  0  0  0  0  0  0  0
   21.4200  -16.5200    0.0000 C   0  0  0  0  0  0  0  0  0  0  0  0
   24.9900  -17.2200    0.0000 N   0  0  0  0  0  0  0  0  0  0  0  0
   26.1800  -16.5200    0.0000 C   0  0  0  0  0  0  0  0  0  0  0  0
   26.1800  -15.1200    0.0000 C   0  0  0  0  0  0  0  0  0  0  0  0
   27.4400  -14.4200    0.0000 C   0  0  0  0  0  0  0  0  0  0  0  0
   28.6300  -15.1200    0.0000 C   0  0  0  0  0  0  0  0  0  0  0  0
   28.6300  -16.5200    0.0000 C   0  0  0  0  0  0  0  0  0  0  0  0
   27.4400  -17.2200    0.0000 N   0  0  0  0  0  0  0  0  0  0  0  0
   29.8200  -17.2200    0.0000 C   0  0  0  0  0  0  0  0  0  0  0  0
   31.0100  -16.5200    0.0000 C   0  0  0  0  0  0  0  0  0  0  0  0
   32.2700  -17.2200    0.0000 C   0  0  0  0  0  0  0  0  0  0  0  0
   32.2700  -18.6200    0.0000 C   0  0  0  0  0  0  0  0  0  0  0  0
   31.0800  -19.3200    0.0000 C   0  0  0  0  0  0  0  0  0  0  0  0
   29.8200  -18.6200    0.0000 C   0  0  0  0  0  0  0  0  0  0  0  0
   29.8200  -14.4200    0.0000 C   0  0  0  0  0  0  0  0  0  0  0  0
   23.8000  -15.1200    0.0000 O   0  0  0  0  0  0  0  0  0  0  0  0
   20.2300  -17.2200    0.0000 C   0  0  0  0  0  0  0  0  0  0  0  0
   18.9700  -16.5200    0.0000 C   0  0  0  0  0  0  0  0  0  0  0  0
   18.9700  -15.1200    0.0000 C   0  0  0  0  0  0  0  0  0  0  0  0
   20.1600  -14.4200    0.0000 C   0  0  0  0  0  0  0  0  0  0  0  0
   21.4200  -15.1200    0.0000 C   0  0  0  0  0  0  0  0  0  0  0  0
   17.6400  -16.9400    0.0000 O   0  0  0  0  0  0  0  0  0  0  0  0
   16.8700  -15.8200    0.0000 C   0  0  0  0  0  0  0  0  0  0  0  0
   17.6400  -14.7000    0.0000 O   0  0  0  0  0  0  0  0  0  0  0  0
   15.8200  -16.8000    0.0000 F   0  0  0  0  0  0  0  0  0  0  0  0
   15.8200  -14.8400    0.0000 F   0  0  0  0  0  0  0  0  0  0  0  0
   33.4600  -16.5200    0.0000 C   0  0  0  0  0  0  0  0  0  0  0  0
   34.6500  -17.2200    0.0000 O   0  0  0  0  0  0  0  0  0  0  0  0
   33.4600  -15.1200    0.0000 O   0  0  0  0  0  0  0  0  0  0  0  0
   21.9100  -18.4100    0.0000 C   0  0  0  0  0  0  0  0  0  0  0  0
   23.3100  -18.4100    0.0000 C   0  0  0  0  0  0  0  0  0  0  0  0
    7.4900  -23.8000    0.0000 C   0  0  0  0  0  0  0  0  0  0  0  0
    7.4900  -22.4000    0.0000 C   0  0  0  0  0  0  0  0  0  0  0  0
    8.6800  -21.7000    0.0000 C   0  0  0  0  0  0  0  0  0  0  0  0
    9.9400  -22.4000    0.0000 C   0  0  0  0  0  0  0  0  0  0  0  0
    9.9400  -23.8000    0.0000 C   0  0  0  0  0  0  0  0  0  0  0  0
    8.6800  -24.5000    0.0000 C   0  0  0  0  0  0  0  0  0  0  0  0
   11.1300  -21.7000    0.0000 C   0  0  0  0  0  0  0  0  0  0  0  0
   12.3200  -22.4000    0.0000 C   0  0  0  0  0  0  0  0  0  0  0  0
   12.3200  -23.8000    0.0000 C   0  0  0  0  0  0  0  0  0  0  0  0
   11.1300  -24.5000    0.0000 N   0  0  0  0  0  0  0  0  0  0  0  0
   13.5100  -21.7000    0.0000 C   0  0  0  0  0  0  0  0  0  0  0  0
   14.7000  -22.4000    0.0000 N   0  0  0  0  0  0  0  0  0  0  0  0
   15.8900  -21.7000    0.0000 C   0  0  0  0  0  0  0  0  0  0  0  0
   13.5100  -20.3000    0.0000 O   0  0  0  0  0  0  0  0  0  0  0  0
   11.1300  -20.3000    0.0000 O   0  0  0  0  0  0  0  0  0  0  0  0
   15.8900  -20.3000    0.0000 C   0  0  0  0  0  0  0  0  0  0  0  0
   17.1500  -19.6000    0.0000 C   0  0  0  0  0  0  0  0  0  0  0  0
   18.3400  -20.3000    0.0000 C   0  0  0  0  0  0  0  0  0  0  0  0
   18.3400  -21.7000    0.0000 C   0  0  0  0  0  0  0  0  0  0  0  0
   17.1500  -22.4000    0.0000 C   0  0  0  0  0  0  0  0  0  0  0  0
   17.1500  -23.8000    0.0000 C   0  0  0  0  0  0  0  0  0  0  0  0
   18.3400  -24.5000    0.0000 C   0  0  0  0  0  0  0  0  0  0  0  0
   15.9600  -24.5000    0.0000 C   0  0  0  0  0  0  0  0  0  0  0  0
   17.1500  -25.2000    0.0000 C   0  0  0  0  0  0  0  0  0  0  0  0
   17.1500  -18.2000    0.0000 O   0  0  0  0  0  0  0  0  0  0  0  0
   19.5300  -19.6000    0.0000 C   0  0  0  0  0  0  0  0  0  0  0  0
   20.7200  -20.3000    0.0000 C   0  0  0  0  0  0  0  0  0  0  0  0
   19.5300  -18.2000    0.0000 C   0  0  0  0  0  0  0  0  0  0  0  0
   20.7900  -18.9000    0.0000 C   0  0  0  0  0  0  0  0  0  0  0  0
  1  2  1  0
  1  3  1  0
  2  4  1  0
  4  5  1  0
  5  6  2  0
  6  7  1  0
  7  8  2  0
  8  9  1  0
  9 10  2  0
  5 10  1  0
  9 11  1  0
 11 12  2  0
 12 13  1  0
 13 14  2  0
 14 15  1  0
 15 16  2  0
 11 16  1  0
  8 17  1  0
  2 18  2  0
  3 19  2  0
 19 20  1  0
 20 21  2  0
 21 22  1  0
 22 23  2  0
  3 23  1  0
 20 24  1  0
 24 25  1  0
 25 26  1  0
 21 26  1  0
 25 27  1  0
 25 28  1  0
 13 29  1  0
 29 30  1  0
 29 31  2  0
 32 33  1  0
 33  1  1  0
  1 32  1  0
 34 35  2  0
 35 36  1  0
 36 37  2  0
 37 38  1  0
 38 39  2  0
 34 39  1  0
 37 40  1  0
 40 41  1  0
 41 42  2  0
 42 43  1  0
 38 43  1  0
 41 44  1  0
 44 45  1  0
 45 46  1  0
 44 47  2  0
 40 48  2  0
 46 49  2  0
 49 50  1  0
 50 51  2  0
 51 52  1  0
 52 53  2  0
 46 53  1  0
 53 54  1  0
 54 55  1  0
 54 56  1  0
 54 57  1  0
 50 58  1  0
 51 59  1  0
 59 60  1  0
 59 61  1  0
 59 62  1  0
M  END
