131801471
     RDKit          2D

457499  0  0  1  0  0  0  0  0999 V2000
   32.1781   -4.2028    0.0000 S   0  0  0  0  0  0  0  0  0  0  0  0
   34.9287   -1.0375    0.0000 S   0  0  0  0  0  0  0  0  0  0  0  0
   28.4685   -5.8720    0.0000 S   0  0  0  0  0  0  0  0  0  0  0  0
   39.1215   -0.9636    0.0000 S   0  0  0  0  0  0  0  0  0  0  0  0
   24.8127   -6.6669    0.0000 S   0  0  0  0  0  0  0  0  0  0  0  0
   40.4254   -2.2161    0.0000 S   0  0  0  0  0  0  0  0  0  0  0  0
   20.9347   -7.8953    0.0000 S   0  0  0  0  0  0  0  0  0  0  0  0
   16.7744   -7.3691    0.0000 S   0  0  0  0  0  0  0  0  0  0  0  0
   13.2258   -6.1841    0.0000 S   0  0  0  0  0  0  0  0  0  0  0  0
   43.6751    2.3331    0.0000 S   0  0  0  0  0  0  0  0  0  0  0  0
    9.5032   -4.5442    0.0000 S   0  0  0  0  0  0  0  0  0  0  0  0
   10.2510    2.8504    0.0000 S   0  0  0  0  0  0  0  0  0  0  0  0
    8.2310   -0.6804    0.0000 S   0  0  0  0  0  0  0  0  0  0  0  0
   49.3370    0.8564    0.0000 S   0  0  0  0  0  0  0  0  0  0  0  0
   14.2266    3.7118    0.0000 S   0  0  0  0  0  0  0  0  0  0  0  0
   52.9066    6.3650    0.0000 S   0  0  0  0  0  0  0  0  0  0  0  0
   14.9783    7.0849    0.0000 S   0  0  0  0  0  0  0  0  0  0  0  0
   32.5832   -5.1171    0.0000 P   0  0  0  0  0  0  0  0  0  0  0  0
   34.5203   -1.9503    0.0000 P   0  0  0  0  0  0  0  0  0  0  0  0
   28.0601   -6.7848    0.0000 P   0  0  0  0  0  0  0  0  0  0  0  0
   38.1699   -1.2709    0.0000 P   0  0  0  0  0  0  0  0  0  0  0  0
   24.5053   -5.7154    0.0000 P   0  0  0  0  0  0  0  0  0  0  0  0
   41.4201   -2.1133    0.0000 P   0  0  0  0  0  0  0  0  0  0  0  0
   20.0219   -7.4870    0.0000 P   0  0  0  0  0  0  0  0  0  0  0  0
   16.4671   -6.4175    0.0000 P   0  0  0  0  0  0  0  0  0  0  0  0
   12.8175   -7.0969    0.0000 P   0  0  0  0  0  0  0  0  0  0  0  0
   44.4171    1.6627    0.0000 P   0  0  0  0  0  0  0  0  0  0  0  0
    8.5516   -4.8516    0.0000 P   0  0  0  0  0  0  0  0  0  0  0  0
   10.0448    3.8289    0.0000 P   0  0  0  0  0  0  0  0  0  0  0  0
    7.3658   -0.1789    0.0000 P   0  0  0  0  0  0  0  0  0  0  0  0
   49.2341    1.8511    0.0000 P   0  0  0  0  0  0  0  0  0  0  0  0
   14.8158    4.5198    0.0000 P   0  0  0  0  0  0  0  0  0  0  0  0
   52.3174    5.5570    0.0000 P   0  0  0  0  0  0  0  0  0  0  0  0
   15.7226    7.7527    0.0000 P   0  0  0  0  0  0  0  0  0  0  0  0
   31.8441   -3.4358    0.0000 O   0  0  0  0  0  0  0  0  0  0  0  0
   30.9021   -7.9936    0.0000 O   0  0  0  0  0  0  0  0  0  0  0  0
   39.1732   -4.1917    0.0000 O   0  0  0  0  0  0  0  0  0  0  0  0
   35.2752   -0.2761    0.0000 O   0  0  0  0  0  0  0  0  0  0  0  0
   21.3347   -4.6916    0.0000 O   0  0  0  0  0  0  0  0  0  0  0  0
   25.0750   -7.4613    0.0000 O   0  0  0  0  0  0  0  0  0  0  0  0
   31.6690   -5.5222    0.0000 O   0  0  0  0  0  0  0  0  0  0  0  0
   33.6075   -1.5420    0.0000 O   0  0  0  0  0  0  0  0  0  0  0  0
   41.1594    0.9640    0.0000 O   0  0  0  0  0  0  0  0  0  0  0  0
   17.0368   -8.1635    0.0000 O   0  0  0  0  0  0  0  0  0  0  0  0
   13.5724   -5.4227    0.0000 O   0  0  0  0  0  0  0  0  0  0  0  0
    9.5550   -7.7724    0.0000 O   0  0  0  0  0  0  0  0  0  0  0  0
   12.2873    6.2930    0.0000 O   0  0  0  0  0  0  0  0  0  0  0  0
    5.8666   -2.8789    0.0000 O   0  0  0  0  0  0  0  0  0  0  0  0
   37.8625   -0.3193    0.0000 O   0  0  0  0  0  0  0  0  0  0  0  0
   27.6518   -7.6977    0.0000 O   0  0  0  0  0  0  0  0  0  0  0  0
   41.5229   -3.1080    0.0000 O   0  0  0  0  0  0  0  0  0  0  0  0
   23.5537   -6.0227    0.0000 O   0  0  0  0  0  0  0  0  0  0  0  0
   31.5396   -0.8662    0.0000 O   0  0  0  0  0  0  0  0  0  0  0  0
   33.2832   -6.9808    0.0000 O   0  0  0  0  0  0  0  0  0  0  0  0
   46.7464   -0.3651    0.0000 O   0  0  0  0  0  0  0  0  0  0  0  0
    7.0351    3.1364    0.0000 O   0  0  0  0  0  0  0  0  0  0  0  0
   41.5192   -5.2836    0.0000 O   0  0  0  0  0  0  0  0  0  0  0  0
   36.9811    1.6697    0.0000 O   0  0  0  0  0  0  0  0  0  0  0  0
   23.7849   -3.8595    0.0000 O   0  0  0  0  0  0  0  0  0  0  0  0
   26.5608   -9.5799    0.0000 O   0  0  0  0  0  0  0  0  0  0  0  0
   52.2997    2.2253    0.0000 O   0  0  0  0  0  0  0  0  0  0  0  0
   19.6136   -8.3998    0.0000 O   0  0  0  0  0  0  0  0  0  0  0  0
   33.4975   -4.7119    0.0000 O   0  0  0  0  0  0  0  0  0  0  0  0
   43.7466    0.9207    0.0000 O   0  0  0  0  0  0  0  0  0  0  0  0
   16.1597   -5.4659    0.0000 O   0  0  0  0  0  0  0  0  0  0  0  0
   11.9047   -6.6886    0.0000 O   0  0  0  0  0  0  0  0  0  0  0  0
   28.9730   -7.1932    0.0000 O   0  0  0  0  0  0  0  0  0  0  0  0
    8.2442   -3.9000    0.0000 O   0  0  0  0  0  0  0  0  0  0  0  0
   11.0233    4.0352    0.0000 O   0  0  0  0  0  0  0  0  0  0  0  0
   35.4332   -2.3587    0.0000 O   0  0  0  0  0  0  0  0  0  0  0  0
    7.8673    0.6862    0.0000 O   0  0  0  0  0  0  0  0  0  0  0  0
   38.4772   -2.2225    0.0000 O   0  0  0  0  0  0  0  0  0  0  0  0
   48.2394    1.7483    0.0000 O   0  0  0  0  0  0  0  0  0  0  0  0
   25.4569   -5.4080    0.0000 O   0  0  0  0  0  0  0  0  0  0  0  0
   42.8652    2.9098    0.0000 O   0  0  0  0  0  0  0  0  0  0  0  0
   18.5225  -10.2821    0.0000 O   0  0  0  0  0  0  0  0  0  0  0  0
   15.2782   -3.4769    0.0000 O   0  0  0  0  0  0  0  0  0  0  0  0
   11.9009   -8.8642    0.0000 O   0  0  0  0  0  0  0  0  0  0  0  0
    9.7476    5.7974    0.0000 O   0  0  0  0  0  0  0  0  0  0  0  0
   20.4302   -6.5742    0.0000 O   0  0  0  0  0  0  0  0  0  0  0  0
    6.6250   -5.3529    0.0000 O   0  0  0  0  0  0  0  0  0  0  0  0
   17.7423    5.4164    0.0000 O   0  0  0  0  0  0  0  0  0  0  0  0
   49.3240   -0.1377    0.0000 O   0  0  0  0  0  0  0  0  0  0  0  0
   41.3173   -1.1186    0.0000 O   0  0  0  0  0  0  0  0  0  0  0  0
    5.7040    0.9174    0.0000 O   0  0  0  0  0  0  0  0  0  0  0  0
   17.4186   -6.1102    0.0000 O   0  0  0  0  0  0  0  0  0  0  0  0
   51.7282    4.7490    0.0000 O   0  0  0  0  0  0  0  0  0  0  0  0
   13.7304   -7.5053    0.0000 O   0  0  0  0  0  0  0  0  0  0  0  0
    8.8590   -5.8031    0.0000 O   0  0  0  0  0  0  0  0  0  0  0  0
   45.1590    0.9923    0.0000 O   0  0  0  0  0  0  0  0  0  0  0  0
    6.8643   -1.0441    0.0000 O   0  0  0  0  0  0  0  0  0  0  0  0
   53.8555    4.2930    0.0000 O   0  0  0  0  0  0  0  0  0  0  0  0
    9.0663    3.6227    0.0000 O   0  0  0  0  0  0  0  0  0  0  0  0
   15.6238    3.9306    0.0000 O   0  0  0  0  0  0  0  0  0  0  0  0
   14.0078    5.1090    0.0000 O   0  0  0  0  0  0  0  0  0  0  0  0
   50.2288    1.9539    0.0000 O   0  0  0  0  0  0  0  0  0  0  0  0
   17.5060    2.8396    0.0000 O   0  0  0  0  0  0  0  0  0  0  0  0
   32.9884   -6.0313    0.0000 O   0  0  0  0  0  0  0  0  0  0  0  0
   34.1120   -2.8632    0.0000 O   0  0  0  0  0  0  0  0  0  0  0  0
   27.1473   -6.3765    0.0000 O   0  0  0  0  0  0  0  0  0  0  0  0
   55.0128    6.8658    0.0000 O   0  0  0  0  0  0  0  0  0  0  0  0
   37.2183   -1.5783    0.0000 O   0  0  0  0  0  0  0  0  0  0  0  0
   24.1979   -4.7638    0.0000 O   0  0  0  0  0  0  0  0  0  0  0  0
   16.3905    7.0084    0.0000 O   0  0  0  0  0  0  0  0  0  0  0  0
   42.4148   -2.0105    0.0000 O   0  0  0  0  0  0  0  0  0  0  0  0
   16.4326   11.0079    0.0000 O   0  0  0  0  0  0  0  0  0  0  0  0
   19.1090   -7.0787    0.0000 O   0  0  0  0  0  0  0  0  0  0  0  0
   53.1254    4.9678    0.0000 O   0  0  0  0  0  0  0  0  0  0  0  0
   16.4669    8.4206    0.0000 O   0  0  0  0  0  0  0  0  0  0  0  0
   15.5155   -6.7249    0.0000 O   0  0  0  0  0  0  0  0  0  0  0  0
   12.4092   -8.0098    0.0000 O   0  0  0  0  0  0  0  0  0  0  0  0
   45.0875    2.4047    0.0000 O   0  0  0  0  0  0  0  0  0  0  0  0
    7.6000   -5.1589    0.0000 O   0  0  0  0  0  0  0  0  0  0  0  0
    9.8386    4.8074    0.0000 O   0  0  0  0  0  0  0  0  0  0  0  0
    6.5006    0.3226    0.0000 O   0  0  0  0  0  0  0  0  0  0  0  0
   49.1313    2.8458    0.0000 O   0  0  0  0  0  0  0  0  0  0  0  0
   14.4810    9.3089    0.0000 O   0  0  0  0  0  0  0  0  0  0  0  0
   53.3137    8.8174    0.0000 O   0  0  0  0  0  0  0  0  0  0  0  0
   15.4050    5.3278    0.0000 O   0  0  0  0  0  0  0  0  0  0  0  0
   52.4254    6.8315    0.0000 O   0  0  0  0  0  0  0  0  0  0  0  0
   36.1062    2.6028    0.0000 O   0  0  0  0  0  0  0  0  0  0  0  0
   23.2768   -7.8347    0.0000 O   0  0  0  0  0  0  0  0  0  0  0  0
   51.5094    6.1462    0.0000 O   0  0  0  0  0  0  0  0  0  0  0  0
   29.2766    0.5046    0.0000 O   0  0  0  0  0  0  0  0  0  0  0  0
   35.5974   -8.2632    0.0000 O   0  0  0  0  0  0  0  0  0  0  0  0
   44.1557   -5.0624    0.0000 O   0  0  0  0  0  0  0  0  0  0  0  0
   39.4795    0.7993    0.0000 O   0  0  0  0  0  0  0  0  0  0  0  0
   14.4034   -2.5438    0.0000 O   0  0  0  0  0  0  0  0  0  0  0  0
   24.6552   -1.3610    0.0000 O   0  0  0  0  0  0  0  0  0  0  0  0
    8.1843   -8.9948    0.0000 O   0  0  0  0  0  0  0  0  0  0  0  0
   27.3711  -11.4084    0.0000 O   0  0  0  0  0  0  0  0  0  0  0  0
    4.0410   -2.6784    0.0000 O   0  0  0  0  0  0  0  0  0  0  0  0
   41.9903    3.8428    0.0000 O   0  0  0  0  0  0  0  0  0  0  0  0
   49.5603   -1.3947    0.0000 O   0  0  0  0  0  0  0  0  0  0  0  0
   15.2385   -8.5369    0.0000 O   0  0  0  0  0  0  0  0  0  0  0  0
    5.9626    4.6273    0.0000 O   0  0  0  0  0  0  0  0  0  0  0  0
   43.8682    4.6401    0.0000 O   0  0  0  0  0  0  0  0  0  0  0  0
   17.7493  -12.8123    0.0000 O   0  0  0  0  0  0  0  0  0  0  0  0
   16.2812   -1.7466    0.0000 O   0  0  0  0  0  0  0  0  0  0  0  0
   12.4964  -11.4421    0.0000 O   0  0  0  0  0  0  0  0  0  0  0  0
    7.7506    7.5329    0.0000 O   0  0  0  0  0  0  0  0  0  0  0  0
    5.1077   -7.5204    0.0000 O   0  0  0  0  0  0  0  0  0  0  0  0
   15.0548    8.4970    0.0000 O   0  0  0  0  0  0  0  0  0  0  0  0
   51.3126   -0.3502    0.0000 O   0  0  0  0  0  0  0  0  0  0  0  0
    3.0780    0.5946    0.0000 O   0  0  0  0  0  0  0  0  0  0  0  0
   18.5146   10.8428    0.0000 O   0  0  0  0  0  0  0  0  0  0  0  0
   32.8135    3.6789    0.0000 O   0  0  0  0  0  0  0  0  0  0  0  0
   55.3441    5.6287    0.0000 O   0  0  0  0  0  0  0  0  0  0  0  0
   22.2006  -11.1274    0.0000 O   0  0  0  0  0  0  0  0  0  0  0  0
   18.7622    2.5990    0.0000 O   0  0  0  0  0  0  0  0  0  0  0  0
   37.6367   -8.7570    0.0000 O   0  0  0  0  0  0  0  0  0  0  0  0
   11.1107   -1.4677    0.0000 O   0  0  0  0  0  0  0  0  0  0  0  0
    8.8987  -12.3845    0.0000 O   0  0  0  0  0  0  0  0  0  0  0  0
   15.9887    0.6721    0.0000 O   0  0  0  0  0  0  0  0  0  0  0  0
    2.0000   -5.4773    0.0000 O   0  0  0  0  0  0  0  0  0  0  0  0
   48.4841   -4.6874    0.0000 O   0  0  0  0  0  0  0  0  0  0  0  0
   57.2996    1.2461    0.0000 O   0  0  0  0  0  0  0  0  0  0  0  0
   15.8733   12.7573    0.0000 O   0  0  0  0  0  0  0  0  0  0  0  0
   12.7524   11.3119    0.0000 O   0  0  0  0  0  0  0  0  0  0  0  0
   53.8182   11.4147    0.0000 O   0  0  0  0  0  0  0  0  0  0  0  0
   12.4862   13.4834    0.0000 O   0  0  0  0  0  0  0  0  0  0  0  0
   58.2733   10.4114    0.0000 O   0  0  0  0  0  0  0  0  0  0  0  0
   30.2578   -2.6240    0.0000 N   0  0  0  0  0  0  0  0  0  0  0  0
   32.3949   -8.9667    0.0000 N   0  0  0  0  0  0  0  0  0  0  0  0
   39.4489   -5.9523    0.0000 N   0  0  0  0  0  0  0  0  0  0  0  0
   21.7989   -2.9711    0.0000 N   0  0  0  0  0  0  0  0  0  0  0  0
   34.8170    1.4460    0.0000 N   0  0  0  0  0  0  0  0  0  0  0  0
   24.4335   -9.1239    0.0000 N   0  0  0  0  0  0  0  0  0  0  0  0
   11.0294    7.5553    0.0000 N   0  0  0  0  0  0  0  0  0  0  0  0
   13.1142   -3.7006    0.0000 N   0  0  0  0  0  0  0  0  0  0  0  0
    9.8307   -9.5329    0.0000 N   0  0  0  0  0  0  0  0  0  0  0  0
   40.7012    2.6861    0.0000 N   0  0  0  0  0  0  0  0  0  0  0  0
   16.3953   -9.8261    0.0000 N   0  0  0  0  0  0  0  0  0  0  0  0
    4.7427   -4.2619    0.0000 N   0  0  0  0  0  0  0  0  0  0  0  0
   47.8654   -1.7519    0.0000 N   0  0  0  0  0  0  0  0  0  0  0  0
    5.2554    3.0462    0.0000 N   0  0  0  0  0  0  0  0  0  0  0  0
   54.0791    2.1289    0.0000 N   0  0  0  0  0  0  0  0  0  0  0  0
   19.1253    4.2925    0.0000 N   0  0  0  0  0  0  0  0  0  0  0  0
   28.7288   -2.1214    0.0000 N   0  0  0  0  0  0  0  0  0  0  0  0
   33.5910  -10.0437    0.0000 N   0  0  0  0  0  0  0  0  0  0  0  0
   39.4489   -7.5617    0.0000 N   0  0  0  0  0  0  0  0  0  0  0  0
   21.9727   -1.3711    0.0000 N   0  0  0  0  0  0  0  0  0  0  0  0
   34.4598    3.1408    0.0000 N   0  0  0  0  0  0  0  0  0  0  0  0
   22.7387   -9.4811    0.0000 N   0  0  0  0  0  0  0  0  0  0  0  0
   29.8773   -4.4066    0.0000 N   0  0  0  0  0  0  0  0  0  0  0  0
   31.0372  -10.1828    0.0000 N   0  0  0  0  0  0  0  0  0  0  0  0
   37.6367   -5.7570    0.0000 N   0  0  0  0  0  0  0  0  0  0  0  0
   10.0834    8.8574    0.0000 N   0  0  0  0  0  0  0  0  0  0  0  0
   19.9762   -2.9696    0.0000 N   0  0  0  0  0  0  0  0  0  0  0  0
   12.7570   -2.0058    0.0000 N   0  0  0  0  0  0  0  0  0  0  0  0
   55.4770    8.5863    0.0000 N   0  0  0  0  0  0  0  0  0  0  0  0
    8.5415  -10.6896    0.0000 N   0  0  0  0  0  0  0  0  0  0  0  0
    3.0205   -4.0778    0.0000 N   0  0  0  0  0  0  0  0  0  0  0  0
   49.0222   -3.0411    0.0000 N   0  0  0  0  0  0  0  0  0  0  0  0
   14.7121   11.4721    0.0000 N   0  0  0  0  0  0  0  0  0  0  0  0
   55.1519    0.9292    0.0000 N   0  0  0  0  0  0  0  0  0  0  0  0
   40.3440    4.3809    0.0000 N   0  0  0  0  0  0  0  0  0  0  0  0
   12.6103    8.4625    0.0000 N   0  0  0  0  0  0  0  0  0  0  0  0
   14.7005  -10.1832    0.0000 N   0  0  0  0  0  0  0  0  0  0  0  0
    4.2397    4.4492    0.0000 N   0  0  0  0  0  0  0  0  0  0  0  0
   55.2999    3.4825    0.0000 N   0  0  0  0  0  0  0  0  0  0  0  0
   36.7707   -7.2570    0.0000 N   0  0  0  0  0  0  0  0  0  0  0  0
   28.1819   -4.7608    0.0000 N   0  0  0  0  0  0  0  0  0  0  0  0
   31.5724  -11.8301    0.0000 N   0  0  0  0  0  0  0  0  0  0  0  0
   19.2772   -1.3849    0.0000 N   0  0  0  0  0  0  0  0  0  0  0  0
   20.4104    3.1313    0.0000 N   0  0  0  0  0  0  0  0  0  0  0  0
   27.0273   -3.4697    0.0000 N   0  0  0  0  0  0  0  0  0  0  0  0
   33.2666  -12.1902    0.0000 N   0  0  0  0  0  0  0  0  0  0  0  0
   56.9453    2.9415    0.0000 N   0  0  0  0  0  0  0  0  0  0  0  0
   12.4292   10.1851    0.0000 N   0  0  0  0  0  0  0  0  0  0  0  0
   20.3001    0.0129    0.0000 N   0  0  0  0  0  0  0  0  0  0  0  0
   38.6976    4.9190    0.0000 N   0  0  0  0  0  0  0  0  0  0  0  0
   14.1624  -11.8296    0.0000 N   0  0  0  0  0  0  0  0  0  0  0  0
   35.9046   -5.7570    0.0000 N   0  0  0  0  0  0  0  0  0  0  0  0
    2.5169    4.2711    0.0000 N   0  0  0  0  0  0  0  0  0  0  0  0
   10.8469   10.8896    0.0000 N   0  0  0  0  0  0  0  0  0  0  0  0
   56.1316   10.0566    0.0000 N   0  0  0  0  0  0  0  0  0  0  0  0
   14.1797   13.1203    0.0000 N   0  0  0  0  0  0  0  0  0  0  0  0
   57.0531    7.6708    0.0000 N   0  0  0  0  0  0  0  0  0  0  0  0
   22.0586    3.6637    0.0000 N   0  0  0  0  0  0  0  0  0  0  0  0
   56.5911    4.6370    0.0000 N   0  0  0  0  0  0  0  0  0  0  0  0
   58.4544    8.6889    0.0000 N   0  0  0  0  0  0  0  0  0  0  0  0
   58.6354    6.9663    0.0000 N   0  0  0  0  0  0  0  0  0  0  0  0
   32.7975   -2.1284    0.0000 C   0  0  0  0  0  0  0  0  0  0  0  0
   31.5627   -6.5166    0.0000 C   0  0  0  0  0  0  0  0  0  0  0  0
   31.8469   -1.8178    0.0000 C   0  0  0  0  0  0  0  0  0  0  0  0
   32.3047   -7.1870    0.0000 C   0  0  0  0  0  0  0  0  0  0  0  0
   32.7957   -3.1284    0.0000 C   0  0  0  0  0  0  0  0  0  0  0  0
   30.6959   -7.0151    0.0000 C   0  0  0  0  0  0  0  0  0  0  0  0
   40.7129   -3.6944    0.0000 C   0  0  0  0  0  0  0  0  0  0  0  0
   36.8847   -0.1097    0.0000 C   0  0  0  0  0  0  0  0  0  0  0  0
   31.2578   -2.6258    0.0000 C   0  0  0  0  0  0  0  0  0  0  0  0
   31.8964   -8.0998    0.0000 C   0  0  0  0  0  0  0  0  0  0  0  0
   40.7112   -4.6944    0.0000 C   0  0  0  0  0  0  0  0  0  0  0  0
   26.6571   -7.8005    0.0000 C   0  0  0  0  0  0  0  0  0  0  0  0
   22.8117   -5.3523    0.0000 C   0  0  0  0  0  0  0  0  0  0  0  0
   39.7624   -3.3837    0.0000 C   0  0  0  0  0  0  0  0  0  0  0  0
   36.4796    0.8045    0.0000 C   0  0  0  0  0  0  0  0  0  0  0  0
   22.9180   -4.3580    0.0000 C   0  0  0  0  0  0  0  0  0  0  0  0
   36.1404   -0.7776    0.0000 C   0  0  0  0  0  0  0  0  0  0  0  0
   26.1556   -8.6656    0.0000 C   0  0  0  0  0  0  0  0  0  0  0  0
   25.9893   -7.0562    0.0000 C   0  0  0  0  0  0  0  0  0  0  0  0
   21.8332   -5.5585    0.0000 C   0  0  0  0  0  0  0  0  0  0  0  0
   39.7596   -5.0017    0.0000 C   0  0  0  0  0  0  0  0  0  0  0  0
   22.0051   -3.9496    0.0000 C   0  0  0  0  0  0  0  0  0  0  0  0
   35.4849    0.7017    0.0000 C   0  0  0  0  0  0  0  0  0  0  0  0
   25.1778   -8.4560    0.0000 C   0  0  0  0  0  0  0  0  0  0  0  0
   18.6189   -8.5027    0.0000 C   0  0  0  0  0  0  0  0  0  0  0  0
   42.7689    1.1304    0.0000 C   0  0  0  0  0  0  0  0  0  0  0  0
   15.1819   -5.2563    0.0000 C   0  0  0  0  0  0  0  0  0  0  0  0
   11.0947   -7.2750    0.0000 C   0  0  0  0  0  0  0  0  0  0  0  0
    7.2664   -3.6904    0.0000 C   0  0  0  0  0  0  0  0  0  0  0  0
   11.3339    4.9857    0.0000 C   0  0  0  0  0  0  0  0  0  0  0  0
   42.3637    2.0446    0.0000 C   0  0  0  0  0  0  0  0  0  0  0  0
   18.1174   -9.3678    0.0000 C   0  0  0  0  0  0  0  0  0  0  0  0
   42.0246    0.4625    0.0000 C   0  0  0  0  0  0  0  0  0  0  0  0
   14.7767   -4.3421    0.0000 C   0  0  0  0  0  0  0  0  0  0  0  0
   17.9510   -7.7584    0.0000 C   0  0  0  0  0  0  0  0  0  0  0  0
   11.0929   -8.2750    0.0000 C   0  0  0  0  0  0  0  0  0  0  0  0
   10.7476    5.7957    0.0000 C   0  0  0  0  0  0  0  0  0  0  0  0
   14.4376   -5.9242    0.0000 C   0  0  0  0  0  0  0  0  0  0  0  0
    6.5222   -4.3582    0.0000 C   0  0  0  0  0  0  0  0  0  0  0  0
   47.8311    0.8355    0.0000 C   0  0  0  0  0  0  0  0  0  0  0  0
   10.1441   -6.9644    0.0000 C   0  0  0  0  0  0  0  0  0  0  0  0
    7.3688    1.5531    0.0000 C   0  0  0  0  0  0  0  0  0  0  0  0
    6.8613   -2.7761    0.0000 C   0  0  0  0  0  0  0  0  0  0  0  0
   12.2855    5.2930    0.0000 C   0  0  0  0  0  0  0  0  0  0  0  0
   48.3296   -0.0314    0.0000 C   0  0  0  0  0  0  0  0  0  0  0  0
    6.3745    1.6594    0.0000 C   0  0  0  0  0  0  0  0  0  0  0  0
   46.8526    0.6293    0.0000 C   0  0  0  0  0  0  0  0  0  0  0  0
   41.3690    1.9418    0.0000 C   0  0  0  0  0  0  0  0  0  0  0  0
    7.7771    2.4660    0.0000 C   0  0  0  0  0  0  0  0  0  0  0  0
   17.1396   -9.1582    0.0000 C   0  0  0  0  0  0  0  0  0  0  0  0
   13.7820   -4.4449    0.0000 C   0  0  0  0  0  0  0  0  0  0  0  0
   11.3367    6.6037    0.0000 C   0  0  0  0  0  0  0  0  0  0  0  0
   10.1413   -8.5824    0.0000 C   0  0  0  0  0  0  0  0  0  0  0  0
   33.6037   -3.7176    0.0000 C   0  0  0  0  0  0  0  0  0  0  0  0
    5.6570   -3.8567    0.0000 C   0  0  0  0  0  0  0  0  0  0  0  0
   29.7830   -6.6068    0.0000 C   0  0  0  0  0  0  0  0  0  0  0  0
   47.6592   -0.7734    0.0000 C   0  0  0  0  0  0  0  0  0  0  0  0
    6.1682    2.6379    0.0000 C   0  0  0  0  0  0  0  0  0  0  0  0
   52.1334    3.8348    0.0000 C   0  0  0  0  0  0  0  0  0  0  0  0
   39.4550   -2.4321    0.0000 C   0  0  0  0  0  0  0  0  0  0  0  0
   36.2432   -1.7723    0.0000 C   0  0  0  0  0  0  0  0  0  0  0  0
   53.1111    3.6251    0.0000 C   0  0  0  0  0  0  0  0  0  0  0  0
   26.1989   -6.0784    0.0000 C   0  0  0  0  0  0  0  0  0  0  0  0
   51.6319    2.9696    0.0000 C   0  0  0  0  0  0  0  0  0  0  0  0
   21.4249   -6.4714    0.0000 C   0  0  0  0  0  0  0  0  0  0  0  0
   53.2140    2.6304    0.0000 C   0  0  0  0  0  0  0  0  0  0  0  0
   16.5380    4.3358    0.0000 C   0  0  0  0  0  0  0  0  0  0  0  0
   42.1274   -0.5322    0.0000 C   0  0  0  0  0  0  0  0  0  0  0  0
   18.1606   -6.7806    0.0000 C   0  0  0  0  0  0  0  0  0  0  0  0
   17.4032    3.8343    0.0000 C   0  0  0  0  0  0  0  0  0  0  0  0
   14.5404   -6.9189    0.0000 C   0  0  0  0  0  0  0  0  0  0  0  0
    9.8368   -6.0128    0.0000 C   0  0  0  0  0  0  0  0  0  0  0  0
    7.3628   -1.9110    0.0000 C   0  0  0  0  0  0  0  0  0  0  0  0
   16.7476    5.3136    0.0000 C   0  0  0  0  0  0  0  0  0  0  0  0
   46.1106    1.2997    0.0000 C   0  0  0  0  0  0  0  0  0  0  0  0
    8.7556    2.6722    0.0000 C   0  0  0  0  0  0  0  0  0  0  0  0
   13.0935    4.7039    0.0000 C   0  0  0  0  0  0  0  0  0  0  0  0
   18.1475    4.5021    0.0000 C   0  0  0  0  0  0  0  0  0  0  0  0
   50.6372    2.8668    0.0000 C   0  0  0  0  0  0  0  0  0  0  0  0
   29.6728   -3.4277    0.0000 C   0  0  0  0  0  0  0  0  0  0  0  0
   31.9882   -9.8738    0.0000 C   0  0  0  0  0  0  0  0  0  0  0  0
   38.5027   -6.2570    0.0000 C   0  0  0  0  0  0  0  0  0  0  0  0
   30.5618   -0.6566    0.0000 C   0  0  0  0  0  0  0  0  0  0  0  0
   33.9511   -7.7251    0.0000 C   0  0  0  0  0  0  0  0  0  0  0  0
   29.6755   -1.8183    0.0000 C   0  0  0  0  0  0  0  0  0  0  0  0
   33.3835   -9.0715    0.0000 C   0  0  0  0  0  0  0  0  0  0  0  0
   20.8911   -2.5660    0.0000 C   0  0  0  0  0  0  0  0  0  0  0  0
   16.0798    6.0579    0.0000 C   0  0  0  0  0  0  0  0  0  0  0  0
   42.4334   -4.8784    0.0000 C   0  0  0  0  0  0  0  0  0  0  0  0
   40.0325   -6.7570    0.0000 C   0  0  0  0  0  0  0  0  0  0  0  0
   37.9810    1.6680    0.0000 C   0  0  0  0  0  0  0  0  0  0  0  0
   23.7866   -2.8595    0.0000 C   0  0  0  0  0  0  0  0  0  0  0  0
   27.5551   -9.6861    0.0000 C   0  0  0  0  0  0  0  0  0  0  0  0
   33.8385    1.2398    0.0000 C   0  0  0  0  0  0  0  0  0  0  0  0
   22.4660   -2.2341    0.0000 C   0  0  0  0  0  0  0  0  0  0  0  0
   24.6398  -10.1024    0.0000 C   0  0  0  0  0  0  0  0  0  0  0  0
   35.1277    2.3965    0.0000 C   0  0  0  0  0  0  0  0  0  0  0  0
   23.4830   -8.8132    0.0000 C   0  0  0  0  0  0  0  0  0  0  0  0
   11.6158    8.3580    0.0000 C   0  0  0  0  0  0  0  0  0  0  0  0
   16.2607    9.3991    0.0000 C   0  0  0  0  0  0  0  0  0  0  0  0
   28.7228   -3.1154    0.0000 C   0  0  0  0  0  0  0  0  0  0  0  0
   32.7314  -10.5429    0.0000 C   0  0  0  0  0  0  0  0  0  0  0  0
   54.1459    6.3673    0.0000 C   0  0  0  0  0  0  0  0  0  0  0  0
   15.3479    9.8074    0.0000 C   0  0  0  0  0  0  0  0  0  0  0  0
   53.4039    7.0377    0.0000 C   0  0  0  0  0  0  0  0  0  0  0  0
   53.8122    7.9506    0.0000 C   0  0  0  0  0  0  0  0  0  0  0  0
   43.8652    2.9080    0.0000 C   0  0  0  0  0  0  0  0  0  0  0  0
   17.9333  -11.0901    0.0000 C   0  0  0  0  0  0  0  0  0  0  0  0
   38.5027   -7.2570    0.0000 C   0  0  0  0  0  0  0  0  0  0  0  0
   16.2782   -3.4787    0.0000 C   0  0  0  0  0  0  0  0  0  0  0  0
   11.7947   -9.8585    0.0000 C   0  0  0  0  0  0  0  0  0  0  0  0
    9.2491    6.6643    0.0000 C   0  0  0  0  0  0  0  0  0  0  0  0
   12.1357   -3.9068    0.0000 C   0  0  0  0  0  0  0  0  0  0  0  0
    5.8149   -5.9393    0.0000 C   0  0  0  0  0  0  0  0  0  0  0  0
   10.4985  -10.2772    0.0000 C   0  0  0  0  0  0  0  0  0  0  0  0
   10.0842    7.8633    0.0000 C   0  0  0  0  0  0  0  0  0  0  0  0
   54.8066    7.8443    0.0000 C   0  0  0  0  0  0  0  0  0  0  0  0
   39.7227    2.4799    0.0000 C   0  0  0  0  0  0  0  0  0  0  0  0
   16.9311   10.1410    0.0000 C   0  0  0  0  0  0  0  0  0  0  0  0
   16.6015  -10.8046    0.0000 C   0  0  0  0  0  0  0  0  0  0  0  0
    4.6365   -5.2562    0.0000 C   0  0  0  0  0  0  0  0  0  0  0  0
   20.9991   -1.5719    0.0000 C   0  0  0  0  0  0  0  0  0  0  0  0
   13.4249   -2.7501    0.0000 C   0  0  0  0  0  0  0  0  0  0  0  0
    8.8522   -9.7391    0.0000 C   0  0  0  0  0  0  0  0  0  0  0  0
   49.9132    0.6703    0.0000 C   0  0  0  0  0  0  0  0  0  0  0  0
   15.4541   10.8017    0.0000 C   0  0  0  0  0  0  0  0  0  0  0  0
    4.7262    1.1270    0.0000 C   0  0  0  0  0  0  0  0  0  0  0  0
    3.9348   -3.6727    0.0000 C   0  0  0  0  0  0  0  0  0  0  0  0
   47.1211   -2.4197    0.0000 C   0  0  0  0  0  0  0  0  0  0  0  0
   54.9876    2.5325    0.0000 C   0  0  0  0  0  0  0  0  0  0  0  0
   41.0118    3.6366    0.0000 C   0  0  0  0  0  0  0  0  0  0  0  0
   48.8160   -2.0626    0.0000 C   0  0  0  0  0  0  0  0  0  0  0  0
   15.4448   -9.5154    0.0000 C   0  0  0  0  0  0  0  0  0  0  0  0
    4.4454    2.4598    0.0000 C   0  0  0  0  0  0  0  0  0  0  0  0
   30.2544    0.2950    0.0000 C   0  0  0  0  0  0  0  0  0  0  0  0
   33.1707    1.9841    0.0000 C   0  0  0  0  0  0  0  0  0  0  0  0
   34.9296   -7.5189    0.0000 C   0  0  0  0  0  0  0  0  0  0  0  0
    5.1526    4.0409    0.0000 C   0  0  0  0  0  0  0  0  0  0  0  0
   54.1805    1.1400    0.0000 C   0  0  0  0  0  0  0  0  0  0  0  0
   23.8955  -10.7702    0.0000 C   0  0  0  0  0  0  0  0  0  0  0  0
   54.8060    3.9823    0.0000 C   0  0  0  0  0  0  0  0  0  0  0  0
   54.0396    5.3730    0.0000 C   0  0  0  0  0  0  0  0  0  0  0  0
   11.0280    9.1670    0.0000 C   0  0  0  0  0  0  0  0  0  0  0  0
   43.2414   -5.4676    0.0000 C   0  0  0  0  0  0  0  0  0  0  0  0
   38.4795    0.8011    0.0000 C   0  0  0  0  0  0  0  0  0  0  0  0
   24.6535   -2.3610    0.0000 C   0  0  0  0  0  0  0  0  0  0  0  0
   27.9603  -10.6004    0.0000 C   0  0  0  0  0  0  0  0  0  0  0  0
   11.4678   -3.1625    0.0000 C   0  0  0  0  0  0  0  0  0  0  0  0
   10.1879  -11.2277    0.0000 C   0  0  0  0  0  0  0  0  0  0  0  0
   16.6960    2.2532    0.0000 C   0  0  0  0  0  0  0  0  0  0  0  0
    3.7222   -5.6614    0.0000 C   0  0  0  0  0  0  0  0  0  0  0  0
   39.0548    3.2242    0.0000 C   0  0  0  0  0  0  0  0  0  0  0  0
   15.8572  -11.4724    0.0000 C   0  0  0  0  0  0  0  0  0  0  0  0
   55.6542    1.7870    0.0000 C   0  0  0  0  0  0  0  0  0  0  0  0
   47.3274   -3.3982    0.0000 C   0  0  0  0  0  0  0  0  0  0  0  0
   33.4813    2.9346    0.0000 C   0  0  0  0  0  0  0  0  0  0  0  0
   19.7957    5.0345    0.0000 C   0  0  0  0  0  0  0  0  0  0  0  0
   22.9449  -10.4596    0.0000 C   0  0  0  0  0  0  0  0  0  0  0  0
   27.9773   -3.7820    0.0000 C   0  0  0  0  0  0  0  0  0  0  0  0
   32.5235  -11.5211    0.0000 C   0  0  0  0  0  0  0  0  0  0  0  0
   44.3667    3.7732    0.0000 C   0  0  0  0  0  0  0  0  0  0  0  0
   18.3385  -12.0043    0.0000 C   0  0  0  0  0  0  0  0  0  0  0  0
    3.5325    2.8681    0.0000 C   0  0  0  0  0  0  0  0  0  0  0  0
   16.7797   -2.6135    0.0000 C   0  0  0  0  0  0  0  0  0  0  0  0
   12.6027  -10.4477    0.0000 C   0  0  0  0  0  0  0  0  0  0  0  0
    8.2491    6.6660    0.0000 C   0  0  0  0  0  0  0  0  0  0  0  0
    5.9177   -6.9340    0.0000 C   0  0  0  0  0  0  0  0  0  0  0  0
   19.4326    3.3410    0.0000 C   0  0  0  0  0  0  0  0  0  0  0  0
   37.6367   -7.7570    0.0000 C   0  0  0  0  0  0  0  0  0  0  0  0
   50.9075    0.5641    0.0000 C   0  0  0  0  0  0  0  0  0  0  0  0
   17.9254   10.0348    0.0000 C   0  0  0  0  0  0  0  0  0  0  0  0
    4.0558    0.3850    0.0000 C   0  0  0  0  0  0  0  0  0  0  0  0
   20.1921   -0.9813    0.0000 C   0  0  0  0  0  0  0  0  0  0  0  0
   11.7785   -2.2120    0.0000 C   0  0  0  0  0  0  0  0  0  0  0  0
    9.2094  -11.4339    0.0000 C   0  0  0  0  0  0  0  0  0  0  0  0
    2.9142   -5.0722    0.0000 C   0  0  0  0  0  0  0  0  0  0  0  0
   55.5503    4.6502    0.0000 C   0  0  0  0  0  0  0  0  0  0  0  0
   39.3655    4.1747    0.0000 C   0  0  0  0  0  0  0  0  0  0  0  0
   14.9067  -11.1617    0.0000 C   0  0  0  0  0  0  0  0  0  0  0  0
   48.2779   -3.7089    0.0000 C   0  0  0  0  0  0  0  0  0  0  0  0
   32.1922    1.7779    0.0000 C   0  0  0  0  0  0  0  0  0  0  0  0
   36.7707   -6.2570    0.0000 C   0  0  0  0  0  0  0  0  0  0  0  0
   24.1017  -11.7487    0.0000 C   0  0  0  0  0  0  0  0  0  0  0  0
    3.4297    3.8628    0.0000 C   0  0  0  0  0  0  0  0  0  0  0  0
   11.4347   10.0806    0.0000 C   0  0  0  0  0  0  0  0  0  0  0  0
   20.7735    4.8249    0.0000 C   0  0  0  0  0  0  0  0  0  0  0  0
   29.1318   -5.0732    0.0000 C   0  0  0  0  0  0  0  0  0  0  0  0
   30.8293  -11.1610    0.0000 C   0  0  0  0  0  0  0  0  0  0  0  0
   16.7988    1.2585    0.0000 C   0  0  0  0  0  0  0  0  0  0  0  0
   10.4893   -3.3687    0.0000 C   0  0  0  0  0  0  0  0  0  0  0  0
   10.8557  -11.9720    0.0000 C   0  0  0  0  0  0  0  0  0  0  0  0
   19.1692   -2.3790    0.0000 C   0  0  0  0  0  0  0  0  0  0  0  0
   56.6330    1.9916    0.0000 C   0  0  0  0  0  0  0  0  0  0  0  0
    3.6160   -6.6557    0.0000 C   0  0  0  0  0  0  0  0  0  0  0  0
   38.0763    3.0180    0.0000 C   0  0  0  0  0  0  0  0  0  0  0  0
   16.0634  -12.4509    0.0000 C   0  0  0  0  0  0  0  0  0  0  0  0
   56.4653    8.4798    0.0000 C   0  0  0  0  0  0  0  0  0  0  0  0
   46.5830   -4.0661    0.0000 C   0  0  0  0  0  0  0  0  0  0  0  0
    2.7225    2.2818    0.0000 C   0  0  0  0  0  0  0  0  0  0  0  0
   55.2711    9.5588    0.0000 C   0  0  0  0  0  0  0  0  0  0  0  0
   13.6158    9.8104    0.0000 C   0  0  0  0  0  0  0  0  0  0  0  0
   21.0809    3.8733    0.0000 C   0  0  0  0  0  0  0  0  0  0  0  0
   53.8152    9.6826    0.0000 C   0  0  0  0  0  0  0  0  0  0  0  0
   13.7605   11.1648    0.0000 C   0  0  0  0  0  0  0  0  0  0  0  0
   13.0170    9.3761    0.0000 C   0  0  0  0  0  0  0  0  0  0  0  0
   56.2788    3.6870    0.0000 C   0  0  0  0  0  0  0  0  0  0  0  0
   14.9217   12.4499    0.0000 C   0  0  0  0  0  0  0  0  0  0  0  0
   56.8721    9.3934    0.0000 C   0  0  0  0  0  0  0  0  0  0  0  0
   21.4439    5.5669    0.0000 C   0  0  0  0  0  0  0  0  0  0  0  0
   13.0185   11.8352    0.0000 C   0  0  0  0  0  0  0  0  0  0  0  0
   28.9693    1.4562    0.0000 C   0  0  0  0  0  0  0  0  0  0  0  0
   35.2868   -9.2137    0.0000 C   0  0  0  0  0  0  0  0  0  0  0  0
   13.6175   10.8104    0.0000 C   0  0  0  0  0  0  0  0  0  0  0  0
   53.3167   10.5495    0.0000 C   0  0  0  0  0  0  0  0  0  0  0  0
   44.9637   -5.6516    0.0000 C   0  0  0  0  0  0  0  0  0  0  0  0
   39.9781   -0.0676    0.0000 C   0  0  0  0  0  0  0  0  0  0  0  0
   25.5221   -0.8625    0.0000 C   0  0  0  0  0  0  0  0  0  0  0  0
   27.7762  -12.3226    0.0000 C   0  0  0  0  0  0  0  0  0  0  0  0
   13.2281   12.8130    0.0000 C   0  0  0  0  0  0  0  0  0  0  0  0
   44.3697    5.5052    0.0000 C   0  0  0  0  0  0  0  0  0  0  0  0
   18.1545  -13.7266    0.0000 C   0  0  0  0  0  0  0  0  0  0  0  0
   57.8666    9.4979    0.0000 C   0  0  0  0  0  0  0  0  0  0  0  0
   16.7827   -0.8814    0.0000 C   0  0  0  0  0  0  0  0  0  0  0  0
   11.5822  -11.8472    0.0000 C   0  0  0  0  0  0  0  0  0  0  0  0
    6.7506    7.5347    0.0000 C   0  0  0  0  0  0  0  0  0  0  0  0
    5.2105   -8.5151    0.0000 C   0  0  0  0  0  0  0  0  0  0  0  0
   52.3070   -0.4564    0.0000 C   0  0  0  0  0  0  0  0  0  0  0  0
    2.4076   -0.1474    0.0000 C   0  0  0  0  0  0  0  0  0  0  0  0
   12.0669   11.5278    0.0000 C   0  0  0  0  0  0  0  0  0  0  0  0
   56.0884    6.2965    0.0000 C   0  0  0  0  0  0  0  0  0  0  0  0
   58.0476    7.7753    0.0000 C   0  0  0  0  0  0  0  0  0  0  0  0
   15.0759    1.0804    0.0000 C   0  0  0  0  0  0  0  0  0  0  0  0
   12.7541   12.3119    0.0000 C   0  0  0  0  0  0  0  0  0  0  0  0
   53.3197   12.2815    0.0000 C   0  0  0  0  0  0  0  0  0  0  0  0
  1 18  2  0
  2 19  2  0
  3 20  2  0
  4 21  2  0
  5 22  2  0
  6 23  2  0
  7 24  2  0
  8 25  2  0
  9 26  2  0
 10 27  2  0
 11 28  2  0
 12 29  2  0
 13 30  2  0
 14 31  2  0
 15 32  2  0
 16 33  2  0
 17 34  2  0
 18 41  1  0
 18 63  1  0
 18 98  1  0
 19 42  1  0
 19 70  1  0
 19 99  1  0
 20 50  1  0
 20 67  1  0
 20100  1  0
 21 49  1  0
 21 72  1  0
 21102  1  0
 22 52  1  0
 22 74  1  0
 22103  1  0
 23 51  1  0
 23 84  1  0
 23105  1  0
 24 62  1  0
 24 80  1  0
 24107  1  0
 25 65  1  0
 25 86  1  0
 25110  1  0
 26 66  1  0
 26 88  1  0
 26111  1  0
 27 64  1  0
 27 90  1  0
 27112  1  0
 28 68  1  0
 28 89  1  0
 28113  1  0
 29 69  1  0
 29 93  1  0
 29114  1  0
 30 71  1  0
 30 91  1  0
 30115  1  0
 31 73  1  0
 31 96  1  0
 31116  1  0
 32 94  1  0
 32 95  1  0
 32119  1  0
 33 87  1  0
 33108  1  0
 33123  1  0
 34104  1  0
 34109  1  0
 34143  1  0
 35228  1  0
 35232  1  0
 36229  1  0
 36233  1  0
 37237  1  0
 37244  1  0
 38240  1  0
 38246  1  0
 39243  1  0
 39245  1  0
 40242  1  0
 40247  1  0
225 41  1  1
224 42  1  6
 43256  1  0
 43271  1  0
 44258  1  0
 44273  1  0
 45261  1  0
 45274  1  0
 46264  1  0
 46276  1  0
 47267  1  0
 47275  1  0
 48266  1  0
 48278  1  0
231 49  1  6
235 50  1  1
230 51  1  1
236 52  1  6
226 53  1  6
 53306  1  0
227 54  1  1
 54307  1  0
 55270  1  0
 55280  1  0
 56272  1  0
 56281  1  0
234 57  1  1
 57312  1  0
238 58  1  6
 58314  1  0
239 59  1  6
 59315  1  0
241 60  1  1
 60316  1  0
 61287  1  0
 61289  1  0
248 62  1  1
 63277  1  0
249 64  1  6
250 65  1  6
251 66  1  1
 67279  1  0
252 68  1  1
253 69  1  1
 70284  1  0
265 71  1  1
 72283  1  0
263 73  1  1
 74286  1  0
254 75  1  6
 75330  1  0
255 76  1  1
 76331  1  0
257 77  1  6
 77333  1  0
259 78  1  1
 78334  1  0
260 79  1  1
 79335  1  0
 80288  1  0
262 81  1  1
 81337  1  0
 82297  1  0
 82301  1  0
268 83  1  1
 83348  1  0
 84291  1  0
269 85  1  1
 85350  1  0
 86292  1  0
282 87  1  1
 88294  1  0
 89295  1  0
 90298  1  0
 91296  1  0
285 92  1  1
 92364  1  0
 93299  1  0
290 94  1  6
 95300  1  0
 96302  1  0
293 97  1  6
 97373  1  0
101326  1  0
101340  1  0
104311  1  0
106342  1  0
106349  1  0
108365  1  0
323109  1  1
327117  1  1
117424  1  0
329118  1  1
118426  1  0
328120  1  1
121320  2  0
122321  2  0
124358  1  0
124434  1  0
125360  1  0
125435  1  0
126367  1  0
126438  1  0
127368  1  0
127439  1  0
128346  2  0
129369  1  0
129440  1  0
130347  2  0
131370  1  0
131441  1  0
132351  2  0
133354  2  0
134355  2  0
135356  2  0
136361  2  0
137384  1  0
137443  1  0
138385  1  0
138444  1  0
139387  1  0
139446  1  0
140388  1  0
140447  1  0
141389  1  0
141448  1  0
142390  1  0
142449  1  0
144393  1  0
144450  1  0
145395  1  0
145451  1  0
146394  1  0
147379  2  0
148400  1  0
148453  1  0
149381  2  0
150391  2  0
151392  2  0
152397  2  0
153398  2  0
154412  1  0
154455  1  0
155399  2  0
156403  2  0
157416  2  0
158430  2  0
159436  1  0
159456  1  0
160437  1  0
160457  1  0
161442  2  0
162445  2  0
232163  1  1
163303  1  0
163308  1  0
233164  1  6
164304  1  0
164309  1  0
244165  1  6
165305  1  0
165313  1  0
245166  1  1
166310  1  0
166318  1  0
246167  1  1
167317  1  0
167320  1  0
247168  1  6
168319  1  0
168321  1  0
275169  1  6
169322  1  0
169339  1  0
274170  1  1
170336  1  0
170346  1  0
276171  1  6
171338  1  0
171347  1  0
271172  1  1
172341  1  0
172354  1  0
273173  1  6
173343  1  0
173356  1  0
278174  1  6
174344  1  0
174351  1  0
280175  1  6
175352  1  0
175355  1  0
281176  1  6
176357  1  0
176361  1  0
289177  1  6
177353  1  0
177362  1  0
301178  1  1
178380  1  0
178391  1  0
179308  2  0
179324  1  0
180309  2  0
180325  1  0
181313  2  0
181332  1  0
182318  2  0
182345  1  0
183320  1  0
183379  1  0
184321  1  0
184381  1  0
185303  1  0
185410  2  0
186304  1  0
186411  2  0
187305  1  0
187405  2  0
188339  2  0
188366  1  0
189310  1  0
189415  2  0
190346  1  0
190397  1  0
340191  1  6
191420  1  0
191423  1  0
192347  1  0
192398  1  0
193351  1  0
193399  1  0
194355  1  0
194403  1  0
349195  1  6
195427  1  0
195430  1  0
196362  2  0
196377  1  0
197354  1  0
197401  2  0
198322  1  0
198428  2  0
199356  1  0
199402  2  0
200361  1  0
200407  2  0
201353  1  0
201429  2  0
202392  1  0
202405  1  0
203382  2  0
203410  1  0
204383  2  0
204411  1  0
205396  2  0
205415  1  0
206391  1  0
206425  2  0
207382  1  0
208383  1  0
209416  1  0
209429  1  0
210408  2  0
210428  1  0
211396  1  0
212401  1  0
213402  1  0
214405  1  0
215407  1  0
216408  1  0
217423  2  0
217431  1  0
218430  1  0
218442  1  0
219420  1  0
219454  2  0
220425  1  0
221429  1  0
222445  1  0
222454  1  0
223454  1  0
224226  1  0
224228  1  0
225227  1  0
225229  1  0
226232  1  0
227233  1  0
228277  1  1
229279  1  6
230234  1  0
230237  1  0
231238  1  0
231240  1  0
234244  1  0
235241  1  0
235242  1  0
236239  1  0
236243  1  0
237283  1  6
238246  1  0
239245  1  0
240284  1  1
241247  1  0
242286  1  6
243288  1  1
248255  1  0
248258  1  0
249254  1  0
249256  1  0
250257  1  0
250261  1  0
251259  1  0
251264  1  0
252262  1  0
252266  1  0
253260  1  0
253267  1  0
254271  1  0
255273  1  0
256291  1  1
257274  1  0
258292  1  6
259276  1  0
260275  1  0
261294  1  1
262278  1  0
263268  1  0
263270  1  0
264295  1  6
265269  1  0
265272  1  0
266296  1  6
267300  1  6
268280  1  0
269281  1  0
270298  1  6
272299  1  6
282285  1  0
282287  1  0
285289  1  0
287302  1  6
290293  1  0
290297  1  0
293301  1  0
297311  1  1
303324  2  0
304325  2  0
305332  2  0
306358  1  0
307360  1  0
310345  2  0
312367  1  0
314368  1  0
315369  1  0
316370  1  0
317359  2  0
319363  2  0
322366  2  0
323327  1  0
323342  1  0
324382  1  0
325383  1  0
326328  1  0
326365  1  6
327349  1  0
328329  1  0
329340  1  0
330384  1  0
331385  1  0
332392  1  0
333387  1  0
334388  1  0
335389  1  0
336371  2  0
337390  1  0
338372  2  0
341375  2  0
342394  1  6
343376  2  0
344374  2  0
345396  1  0
348393  1  0
350395  1  0
352378  2  0
353377  2  0
357386  2  0
359379  1  0
359404  1  0
363381  1  0
363406  1  0
364400  1  0
366408  1  0
371397  1  0
371413  1  0
372398  1  0
372414  1  0
373412  1  0
374399  1  0
374417  1  0
375401  1  0
375418  1  0
376402  1  0
376419  1  0
377416  1  0
378403  1  0
378421  1  0
380409  2  0
386407  1  0
386422  1  0
409425  1  0
409432  1  0
420431  2  0
424436  1  0
426437  1  0
427433  2  0
431445  1  0
433442  1  0
433452  1  0
M  END
