 
     RDKit          2D

 97 99  0  0  0  0  0  0  0  0999 V2000
    8.7500  -18.5500    0.0000 C   0  0  0  0  0  0  0  0  0  0  0  0
    8.7500  -19.9500    0.0000 C   0  0  0  0  0  0  0  0  0  0  0  0
    9.9400  -20.6500    0.0000 C   0  0  0  0  0  0  0  0  0  0  0  0
   11.2000  -19.9500    0.0000 C   0  0  0  0  0  0  0  0  0  0  0  0
   11.2000  -18.5500    0.0000 C   0  0  0  0  0  0  0  0  0  0  0  0
    9.9400  -17.8500    0.0000 N   0  0  0  0  0  0  0  0  0  0  0  0
   12.3900  -20.6500    0.0000 S   0  0  0  0  0  0  0  0  0  0  0  0
   13.5800  -19.9500    0.0000 N   0  0  0  0  0  0  0  0  0  0  0  0
   11.4100  -21.6300    0.0000 O   0  0  0  0  0  0  0  0  0  0  0  0
   13.3700  -21.6300    0.0000 O   0  0  0  0  0  0  0  0  0  0  0  0
   14.9100  -20.3700    0.0000 C   0  0  0  0  0  0  0  0  0  0  0  0
   15.6800  -19.2500    0.0000 C   0  0  0  0  0  0  0  0  0  0  0  0
   14.9100  -18.2000    0.0000 C   0  0  0  0  0  0  0  0  0  0  0  0
   13.5800  -18.6200    0.0000 C   0  0  0  0  0  0  0  0  0  0  0  0
   14.9100  -22.7500    0.0000 C   0  0  0  0  0  0  0  0  0  0  0  0
   15.5400  -24.0100    0.0000 C   0  0  0  0  0  0  0  0  0  0  0  0
   16.9400  -24.0100    0.0000 C   0  0  0  0  0  0  0  0  0  0  0  0
   17.7100  -22.8200    0.0000 C   0  0  0  0  0  0  0  0  0  0  0  0
   17.0100  -21.5600    0.0000 C   0  0  0  0  0  0  0  0  0  0  0  0
   15.6100  -21.5600    0.0000 C   0  0  0  0  0  0  0  0  0  0  0  0
   17.7100  -20.3700    0.0000 F   0  0  0  0  0  0  0  0  0  0  0  0
   15.3452  -16.8694    0.0000 C   0  0  0  0  0  0  0  0  0  0  0  0
   16.7452  -16.8694    0.0000 N   0  0  0  0  0  0  0  0  0  0  0  0
   17.4410  -15.6640    0.0000 C   0  0  0  0  0  0  0  0  0  0  0  0
   21.6300  -19.2500    0.0000 C   0  0  0  0  0  0  0  0  0  0  0  0
   22.8424  -19.9500    0.0000 C   0  0  0  0  0  0  0  0  0  0  0  0
   20.4176  -19.9500    0.0000 O   0  0  0  0  0  0  0  0  0  0  0  0
   21.6300  -17.8500    0.0000 O   0  0  0  0  0  0  0  0  0  0  0  0
   24.0379  -19.2596    0.0000 C   0  0  0  0  0  0  0  0  0  0  0  0
   25.2253  -19.9451    0.0000 C   0  0  0  0  0  0  0  0  0  0  0  0
   26.4165  -19.2571    0.0000 O   0  0  0  0  0  0  0  0  0  0  0  0
   25.2255  -21.3498    0.0000 O   0  0  0  0  0  0  0  0  0  0  0  0
   24.5313  -17.0264    0.0000 C   0  0  0  0  0  0  0  0  0  0  0  0
   24.5313  -18.4300    0.0000 C   0  0  0  0  0  0  0  0  0  0  0  0
   25.9349  -18.4300    0.0000 N   0  0  0  0  0  0  0  0  0  0  0  0
   25.9349  -17.0264    0.0000 C   0  0  0  0  0  0  0  0  0  0  0  0
   27.2683  -18.8510    0.0000 C   0  0  0  0  0  0  0  0  0  0  0  0
   28.1103  -17.7281    0.0000 C   0  0  0  0  0  0  0  0  0  0  0  0
   27.2683  -16.6053    0.0000 S   0  0  0  0  0  0  0  0  0  0  0  0
   29.0929  -18.7107    0.0000 C   0  0  0  0  0  0  0  0  0  0  0  0
   29.0929  -16.7456    0.0000 C   0  0  0  0  0  0  0  0  0  0  0  0
   27.7595  -20.1844    0.0000 C   0  0  0  0  0  0  0  0  0  0  0  0
   29.1630  -20.1844    0.0000 O   0  0  0  0  0  0  0  0  0  0  0  0
   26.9173  -21.3072    0.0000 O   0  0  0  0  0  0  0  0  0  0  0  0
   23.3383  -16.3246    0.0000 N   0  0  0  0  0  0  0  0  0  0  0  0
   22.1452  -17.0264    0.0000 C   0  0  0  0  0  0  0  0  0  0  0  0
   23.3383  -19.1317    0.0000 O   0  0  0  0  0  0  0  0  0  0  0  0
   22.1452  -18.4300    0.0000 O   0  0  0  0  0  0  0  0  0  0  0  0
   20.9268  -16.3295    0.0000 C   0  0  0  0  0  0  0  0  0  0  0  0
   19.7355  -17.0241    0.0000 C   0  0  0  0  0  0  0  0  0  0  0  0
   20.9268  -14.9295    0.0000 N   0  0  0  0  0  0  0  0  0  0  0  0
   18.5230  -16.3241    0.0000 C   0  0  0  0  0  0  0  0  0  0  0  0
   17.3106  -17.0241    0.0000 C   0  0  0  0  0  0  0  0  0  0  0  0
   17.3106  -18.4241    0.0000 C   0  0  0  0  0  0  0  0  0  0  0  0
   18.5230  -19.1241    0.0000 C   0  0  0  0  0  0  0  0  0  0  0  0
   19.7355  -18.4241    0.0000 C   0  0  0  0  0  0  0  0  0  0  0  0
   16.0891  -19.1295    0.0000 O   0  0  0  0  0  0  0  0  0  0  0  0
   34.0923  -18.2711    0.0000 O   0  0  0  0  0  0  0  0  0  0  0  0
   34.0923  -18.2711    0.0000 O   0  0  0  0  0  0  0  0  0  0  0  0
   34.0923  -18.2711    0.0000 O   0  0  0  0  0  0  0  0  0  0  0  0
   25.2700  -16.8000    0.0000 C   0  0  0  0  0  0  0  0  0  0  0  0
   25.2700  -18.2000    0.0000 C   0  0  0  0  0  0  0  0  0  0  0  0
   26.6700  -18.2000    0.0000 N   0  0  0  0  0  0  0  0  0  0  0  0
   26.6700  -16.8000    0.0000 C   0  0  0  0  0  0  0  0  0  0  0  0
   28.0000  -18.6200    0.0000 C   0  0  0  0  0  0  0  0  0  0  0  0
   28.8400  -17.5000    0.0000 C   0  0  0  0  0  0  0  0  0  0  0  0
   28.0000  -16.3800    0.0000 S   0  0  0  0  0  0  0  0  0  0  0  0
   29.8200  -18.4800    0.0000 C   0  0  0  0  0  0  0  0  0  0  0  0
   29.8200  -16.5200    0.0000 C   0  0  0  0  0  0  0  0  0  0  0  0
   28.4900  -20.0200    0.0000 C   0  0  0  0  0  0  0  0  0  0  0  0
   29.8900  -20.0200    0.0000 O   0  0  0  0  0  0  0  0  0  0  0  0
   27.6500  -21.1400    0.0000 O   0  0  0  0  0  0  0  0  0  0  0  0
   24.0800  -16.1000    0.0000 N   0  0  0  0  0  0  0  0  0  0  0  0
   22.8900  -16.8000    0.0000 C   0  0  0  0  0  0  0  0  0  0  0  0
   24.0800  -18.9000    0.0000 O   0  0  0  0  0  0  0  0  0  0  0  0
   22.8900  -18.2000    0.0000 O   0  0  0  0  0  0  0  0  0  0  0  0
   21.6300  -16.1000    0.0000 C   0  0  0  0  0  0  0  0  0  0  0  0
   20.4400  -16.8000    0.0000 C   0  0  0  0  0  0  0  0  0  0  0  0
   21.6300  -14.7000    0.0000 N   0  0  0  0  0  0  0  0  0  0  0  0
   19.2500  -16.1000    0.0000 C   0  0  0  0  0  0  0  0  0  0  0  0
   17.9900  -16.8000    0.0000 C   0  0  0  0  0  0  0  0  0  0  0  0
   17.9900  -18.2000    0.0000 C   0  0  0  0  0  0  0  0  0  0  0  0
   19.2500  -18.9000    0.0000 C   0  0  0  0  0  0  0  0  0  0  0  0
   20.4400  -18.2000    0.0000 C   0  0  0  0  0  0  0  0  0  0  0  0
   16.8000  -18.9000    0.0000 O   0  0  0  0  0  0  0  0  0  0  0  0
   22.2483  -16.2228    0.0000 N   0  0  0  0  0  0  0  0  0  0  0  0
   21.8345  -17.4879    0.0000 C   0  0  0  0  0  0  0  0  0  0  0  0
   21.1640  -15.4301    0.0000 C   0  0  0  0  0  0  0  0  0  0  0  0
   23.3153  -15.5992    0.0000 C   0  0  0  0  0  0  0  0  0  0  0  0
   20.5053  -17.4879    0.0000 C   0  0  0  0  0  0  0  0  0  0  0  0
   22.6157  -18.5665    0.0000 N   0  0  0  0  0  0  0  0  0  0  0  0
   20.0855  -16.2228    0.0000 N   0  0  0  0  0  0  0  0  0  0  0  0
   21.1640  -14.1009    0.0000 C   0  0  0  0  0  0  0  0  0  0  0  0
   24.3995  -16.2812    0.0000 C   0  0  0  0  0  0  0  0  0  0  0  0
   23.7875  -19.7150    0.0000 O   0  0  0  0  0  0  0  0  0  0  0  0
   21.1582  -19.7207    0.0000 O   0  0  0  0  0  0  0  0  0  0  0  0
   25.6763  -15.5992    0.0000 O   0  0  0  0  0  0  0  0  0  0  0  0
  1  2  2  0
  2  3  1  0
  3  4  2  0
  4  5  1  0
  5  6  2  0
  1  6  1  0
  4  7  1  0
  7  8  1  0
  7  9  2  0
  7 10  2  0
  8 11  1  0
 11 12  2  0
 12 13  1  0
 13 14  2  0
  8 14  1  0
 15 16  2  0
 16 17  1  0
 17 18  2  0
 18 19  1  0
 19 20  2  0
 15 20  1  0
 20 11  1  0
 19 21  1  0
 13 22  1  0
 22 23  1  0
 23 24  1  0
 25 26  1  0
 25 27  1  0
 25 28  2  0
 26 29  2  0
 29 30  1  0
 30 31  1  0
 30 32  2  0
 33 34  1  0
 34 35  1  0
 35 36  1  0
 33 36  1  0
 35 37  1  0
 37 38  1  0
 38 39  1  0
 36 39  1  1
 38 40  1  0
 38 41  1  0
 37 42  1  6
 42 43  1  0
 42 44  2  0
 33 45  1  1
 45 46  1  0
 34 47  2  0
 46 48  2  0
 46 49  1  0
 49 50  1  0
 49 51  1  1
 50 52  2  0
 52 53  1  0
 53 54  2  0
 54 55  1  0
 55 56  2  0
 50 56  1  0
 54 57  1  0
 61 62  1  0
 62 63  1  0
 63 64  1  0
 61 64  1  0
 63 65  1  0
 65 66  1  0
 66 67  1  0
 64 67  1  1
 66 68  1  0
 66 69  1  0
 65 70  1  6
 70 71  1  0
 70 72  2  0
 61 73  1  1
 73 74  1  0
 62 75  2  0
 74 76  2  0
 74 77  1  0
 77 78  1  0
 77 79  1  1
 78 80  2  0
 80 81  1  0
 81 82  2  0
 82 83  1  0
 83 84  2  0
 78 84  1  0
 82 85  1  0
 86 87  1  0
 86 88  1  0
 86 89  1  0
 87 90  2  0
 87 91  1  0
 88 92  2  0
 88 93  1  0
 89 94  1  0
 91 95  2  0
 91 96  1  0
 94 97  1  0
 90 92  1  0
M  CHG  2  91   1  96  -1
M  END
