 
     RDKit          2D

 49 55  0  0  0  0  0  0  0  0999 V2000
   17.7219  -19.1703    0.0000 C   0  0  0  0  0  0  0  0  0  0  0  0
   16.9759  -20.6495    0.0000 C   0  0  0  0  0  0  0  0  0  0  0  0
   16.9759  -21.9529    0.0000 C   0  0  0  0  0  0  0  0  0  0  0  0
   16.5531  -21.1864    0.0000 C   0  0  0  0  0  0  0  0  0  0  0  0
   18.8839  -21.1864    0.0000 C   0  0  0  0  0  0  0  0  0  0  0  0
   15.2964  -22.4094    0.0000 C   0  0  0  0  0  0  0  0  0  0  0  0
   18.1087  -23.0011    0.0000 C   0  0  0  0  0  0  0  0  0  0  0  0
   16.5531  -19.8380    0.0000 C   0  0  0  0  0  0  0  0  0  0  0  0
   17.7237  -21.8606    0.0000 C   0  0  0  0  0  0  0  0  0  0  0  0
   18.8874  -19.8380    0.0000 C   0  0  0  0  0  0  0  0  0  0  0  0
   20.0526  -13.7790    0.0000 C   0  0  0  0  0  0  0  0  0  0  0  0
   20.0526  -15.1274    0.0000 C   0  0  0  0  0  0  0  0  0  0  0  0
   21.2231  -15.8016    0.0000 C   0  0  0  0  0  0  0  0  0  0  0  0
   21.2231  -13.1048    0.0000 C   0  0  0  0  0  0  0  0  0  0  0  0
   22.3869  -13.7790    0.0000 C   0  0  0  0  0  0  0  0  0  0  0  0
   22.3811  -15.1274    0.0000 C   0  0  0  0  0  0  0  0  0  0  0  0
   23.5460  -15.8065    0.0000 C   0  0  0  0  0  0  0  0  0  0  0  0
   24.7166  -15.1374    0.0000 C   0  0  0  0  0  0  0  0  0  0  0  0
   24.7223  -13.7890    0.0000 C   0  0  0  0  0  0  0  0  0  0  0  0
   23.5574  -13.1099    0.0000 C   0  0  0  0  0  0  0  0  0  0  0  0
   18.8851  -15.8022    0.0000 C   0  0  0  0  0  0  0  0  0  0  0  0
   17.7197  -15.1251    0.0000 C   0  0  0  0  0  0  0  0  0  0  0  0
   16.5524  -15.8000    0.0000 C   0  0  0  0  0  0  0  0  0  0  0  0
   16.5531  -17.1484    0.0000 C   0  0  0  0  0  0  0  0  0  0  0  0
   17.7212  -17.8219    0.0000 C   0  0  0  0  0  0  0  0  0  0  0  0
   18.8885  -17.1472    0.0000 C   0  0  0  0  0  0  0  0  0  0  0  0
   25.8929  -13.1198    0.0000 C   0  0  0  0  0  0  0  0  0  0  0  0
   27.0577  -13.7989    0.0000 O   0  0  0  0  0  0  0  0  0  0  0  0
   25.8988  -11.7714    0.0000 O   0  0  0  0  0  0  0  0  0  0  0  0
   15.3856  -17.8232    0.0000 O   0  0  0  0  0  0  0  0  0  0  0  0
   15.3864  -19.1716    0.0000 C   0  0  0  0  0  0  0  0  0  0  0  0
   24.7586  -14.9811    0.0000 O   0  0  0  0  0  0  0  0  0  0  0  0
   23.5472  -14.2789    0.0000 C   0  0  0  0  0  0  0  0  0  0  0  0
   22.3357  -14.9811    0.0000 C   0  0  0  0  0  0  0  0  0  0  0  0
   21.1185  -14.2789    0.0000 C   0  0  0  0  0  0  0  0  0  0  0  0
   22.3357  -16.3798    0.0000 C   0  0  0  0  0  0  0  0  0  0  0  0
   19.9071  -14.9811    0.0000 C   0  0  0  0  0  0  0  0  0  0  0  0
   21.1185  -17.0821    0.0000 C   0  0  0  0  0  0  0  0  0  0  0  0
   19.9071  -16.3798    0.0000 C   0  0  0  0  0  0  0  0  0  0  0  0
   25.9887  -14.2735    0.0000 O   0  0  0  0  0  0  0  0  0  0  0  0
   27.1887  -14.9691    0.0000 C   0  0  0  0  0  0  0  0  0  0  0  0
   27.1865  -16.3797    0.0000 C   0  0  0  0  0  0  0  0  0  0  0  0
   25.9531  -17.0895    0.0000 C   0  0  0  0  0  0  0  0  0  0  0  0
   25.9512  -18.4895    0.0000 C   0  0  0  0  0  0  0  0  0  0  0  0
   27.1626  -19.1912    0.0000 C   0  0  0  0  0  0  0  0  0  0  0  0
   28.3960  -18.4814    0.0000 C   0  0  0  0  0  0  0  0  0  0  0  0
   28.3979  -17.0814    0.0000 C   0  0  0  0  0  0  0  0  0  0  0  0
   23.5472  -12.8803    0.0000 O   0  0  0  0  0  0  0  0  0  0  0  0
   28.3759  -14.2861    0.0000 O   0  0  0  0  0  0  0  0  0  0  0  0
 14 11  2  0
  1  2  1  0
  2  3  1  0
  8  4  1  0
  4  9  1  0
  9  5  1  0
 15 16  2  0
 16 17  1  0
 17 18  2  0
 18 19  1  0
 19 20  2  0
 20 15  1  0
  5 10  1  0
 12 21  1  0
 10  1  1  0
  1  8  1  0
  3  6  1  0
  3  7  1  0
  4  6  1  0
 21 22  2  0
 22 23  1  0
 23 24  2  0
 24 25  1  0
 25 26  2  0
 26 21  1  0
  5  7  1  0
 19 27  1  0
 11 12  1  0
 27 28  2  0
 12 13  2  0
 27 29  1  0
 13 16  1  0
 24 30  1  0
 15 14  1  0
 30 31  1  0
 25  1  1  0
 32 33  1  0
 33 34  1  0
 34 35  2  0
 34 36  1  0
 35 37  1  0
 36 38  2  0
 37 39  2  0
 38 39  1  0
 32 40  1  0
 40 41  1  0
 41 42  1  0
 42 43  2  0
 43 44  1  0
 44 45  2  0
 45 46  1  0
 46 47  2  0
 42 47  1  0
 33 48  2  0
 41 49  2  0
M  END
