 
     RDKit          2D

208220  0  0  1  0  0  0  0  0999 V2000
   13.1680  -16.5337    0.0000 C   0  0  0  0  0  0  0  0  0  0  0  0
   13.1680  -17.9349    0.0000 C   0  0  0  0  0  0  0  0  0  0  0  0
   14.3815  -18.6355    0.0000 C   0  0  0  0  0  0  0  0  0  0  0  0
   15.5951  -17.9349    0.0000 C   0  0  0  0  0  0  0  0  0  0  0  0
   15.5951  -16.5337    0.0000 C   0  0  0  0  0  0  0  0  0  0  0  0
   14.3815  -15.8330    0.0000 C   0  0  0  0  0  0  0  0  0  0  0  0
   16.8337  -18.6355    0.0000 C   0  0  0  0  0  0  0  0  0  0  0  0
   18.0473  -17.9349    0.0000 C   0  0  0  0  0  0  0  0  0  0  0  0
   19.2608  -18.6355    0.0000 C   0  0  0  0  0  0  0  0  0  0  0  0
   20.4743  -17.9349    0.0000 C   0  0  0  0  0  0  0  0  0  0  0  0
   21.6878  -18.6355    0.0000 C   0  0  0  0  0  0  0  0  0  0  0  0
   22.9013  -17.9349    0.0000 C   0  0  0  0  0  0  0  0  0  0  0  0
   24.1148  -18.6355    0.0000 C   0  0  0  0  0  0  0  0  0  0  0  0
   25.3284  -17.9349    0.0000 O   0  0  0  0  0  0  0  0  0  0  0  0
   20.4743  -16.5337    0.0000 C   0  0  0  0  0  0  0  0  0  0  0  0
   19.2608  -15.8330    0.0000 C   0  0  0  0  0  0  0  0  0  0  0  0
   18.0473  -16.5337    0.0000 C   0  0  0  0  0  0  0  0  0  0  0  0
   22.9013  -16.5337    0.0000 C   0  0  0  0  0  0  0  0  0  0  0  0
   21.6878  -15.8330    0.0000 N   0  0  0  0  0  0  0  0  0  0  0  0
   21.6878  -14.4321    0.0000 C   0  0  0  0  0  0  0  0  0  0  0  0
   22.9221  -13.7192    0.0000 C   0  0  0  0  0  0  0  0  0  0  0  0
   24.1293  -14.4159    0.0000 C   0  0  0  0  0  0  0  0  0  0  0  0
   22.9218  -12.3300    0.0000 C   0  0  0  0  0  0  0  0  0  0  0  0
   20.4952  -13.7434    0.0000 C   0  0  0  0  0  0  0  0  0  0  0  0
   19.3090  -14.4282    0.0000 O   0  0  0  0  0  0  0  0  0  0  0  0
   21.6878  -20.0365    0.0000 O   0  0  0  0  0  0  0  0  0  0  0  0
   14.3815  -20.0366    0.0000 F   0  0  0  0  0  0  0  0  0  0  0  0
   11.9546  -18.6355    0.0000 Cl  0  0  0  0  0  0  0  0  0  0  0  0
   16.8527  -15.8438    0.0000 O   0  0  0  0  0  0  0  0  0  0  0  0
   16.8680  -14.4319    0.0000 C   0  0  0  0  0  0  0  0  0  0  0  0
   24.1148  -20.0367    0.0000 O   0  0  0  0  0  0  0  0  0  0  0  0
   26.1100  -20.1600    0.0000 C   0  0  0  0  0  0  0  0  0  0  0  0
   26.1100  -21.5600    0.0000 C   0  0  0  0  0  0  0  0  0  0  0  0
   27.3000  -19.4600    0.0000 C   0  0  0  0  0  0  0  0  0  0  0  0
   24.9200  -19.4600    0.0000 N   0  0  0  0  0  0  0  0  0  0  0  0
   28.5600  -20.1600    0.0000 C   0  0  0  0  0  0  0  0  0  0  0  0
   23.7300  -20.1600    0.0000 C   0  0  0  0  0  0  0  0  0  0  0  0
   29.7500  -19.4600    0.0000 C   0  0  0  0  0  0  0  0  0  0  0  0
   22.4700  -19.4600    0.0000 C   0  0  0  0  0  0  0  0  0  0  0  0
   23.7300  -21.5600    0.0000 O   0  0  0  0  0  0  0  0  0  0  0  0
   29.7500  -18.0600    0.0000 C   0  0  0  0  0  0  0  0  0  0  0  0
   30.9400  -20.0900    0.0000 N   0  0  0  0  0  0  0  0  0  0  0  0
   21.2800  -20.1600    0.0000 N   0  0  0  0  0  0  0  0  0  0  0  0
   28.4900  -17.3600    0.0000 C   0  0  0  0  0  0  0  0  0  0  0  0
   32.1300  -19.4600    0.0000 C   0  0  0  0  0  0  0  0  0  0  0  0
   20.0900  -19.4600    0.0000 C   0  0  0  0  0  0  0  0  0  0  0  0
   28.4900  -15.9600    0.0000 C   0  0  0  0  0  0  0  0  0  0  0  0
   27.3000  -18.0600    0.0000 C   0  0  0  0  0  0  0  0  0  0  0  0
   33.3900  -20.0900    0.0000 O   0  0  0  0  0  0  0  0  0  0  0  0
   32.1300  -18.0600    0.0000 O   0  0  0  0  0  0  0  0  0  0  0  0
   18.9000  -20.1600    0.0000 N   0  0  0  0  0  0  0  0  0  0  0  0
   20.0900  -18.0600    0.0000 O   0  0  0  0  0  0  0  0  0  0  0  0
   27.3000  -15.2600    0.0000 C   0  0  0  0  0  0  0  0  0  0  0  0
   26.1100  -17.3600    0.0000 C   0  0  0  0  0  0  0  0  0  0  0  0
   34.5800  -19.3900    0.0000 C   0  0  0  0  0  0  0  0  0  0  0  0
   17.6400  -19.4600    0.0000 C   0  0  0  0  0  0  0  0  0  0  0  0
   18.9000  -21.5600    0.0000 C   0  0  0  0  0  0  0  0  0  0  0  0
   26.1100  -15.9600    0.0000 C   0  0  0  0  0  0  0  0  0  0  0  0
   35.7700  -20.0900    0.0000 C   0  0  0  0  0  0  0  0  0  0  0  0
   16.4500  -20.1600    0.0000 C   0  0  0  0  0  0  0  0  0  0  0  0
   35.7700  -21.4900    0.0000 C   0  0  0  0  0  0  0  0  0  0  0  0
   37.1000  -19.6700    0.0000 S   0  0  0  0  0  0  0  0  0  0  0  0
   15.1200  -19.8100    0.0000 N   0  0  0  0  0  0  0  0  0  0  0  0
   16.4500  -21.5600    0.0000 C   0  0  0  0  0  0  0  0  0  0  0  0
   37.1000  -21.9100    0.0000 N   0  0  0  0  0  0  0  0  0  0  0  0
   37.9400  -20.7900    0.0000 C   0  0  0  0  0  0  0  0  0  0  0  0
   14.3500  -21.0000    0.0000 C   0  0  0  0  0  0  0  0  0  0  0  0
   15.1900  -22.0500    0.0000 S   0  0  0  0  0  0  0  0  0  0  0  0
   12.9500  -21.0000    0.0000 C   0  0  0  0  0  0  0  0  0  0  0  0
   12.1800  -19.8100    0.0000 C   0  0  0  0  0  0  0  0  0  0  0  0
   12.3200  -22.1900    0.0000 C   0  0  0  0  0  0  0  0  0  0  0  0
   27.3224  -22.2600    0.0000 C   0  0  0  0  0  0  0  0  0  0  0  0
   27.3224  -23.6598    0.0000 C   0  0  0  0  0  0  0  0  0  0  0  0
   28.5349  -24.3598    0.0000 C   0  0  0  0  0  0  0  0  0  0  0  0
   29.7473  -23.6598    0.0000 C   0  0  0  0  0  0  0  0  0  0  0  0
   29.7473  -22.2600    0.0000 C   0  0  0  0  0  0  0  0  0  0  0  0
   28.5349  -21.5600    0.0000 C   0  0  0  0  0  0  0  0  0  0  0  0
   22.4528  -18.0601    0.0000 C   0  0  0  0  0  0  0  0  0  0  0  0
   21.2449  -17.3824    0.0000 C   0  0  0  0  0  0  0  0  0  0  0  0
   21.2449  -15.9824    0.0000 N   0  0  0  0  0  0  0  0  0  0  0  0
   22.4402  -15.2917    0.0000 C   0  0  0  0  0  0  0  0  0  0  0  0
   22.4397  -13.8917    0.0000 C   0  0  0  0  0  0  0  0  0  0  0  0
   21.2270  -13.1922    0.0000 O   0  0  0  0  0  0  0  0  0  0  0  0
   20.0317  -13.8828    0.0000 C   0  0  0  0  0  0  0  0  0  0  0  0
   20.0322  -15.2828    0.0000 C   0  0  0  0  0  0  0  0  0  0  0  0
   25.0103  -17.6390    0.0000 N   0  0  0  0  0  0  0  0  0  0  0  0
   23.6350  -18.1111    0.0000 C   0  0  0  0  0  0  0  0  0  0  0  0
   21.3970  -18.1111    0.0000 C   0  0  0  0  0  0  0  0  0  0  0  0
   20.1381  -17.4117    0.0000 C   0  0  0  0  0  0  0  0  0  0  0  0
   18.9492  -18.1111    0.0000 O   0  0  0  0  0  0  0  0  0  0  0  0
   21.8166  -19.4399    0.0000 S   0  0  0  0  0  0  0  0  0  0  0  0
   22.5160  -17.2718    0.0000 O   0  0  0  0  0  0  0  0  0  0  0  0
   23.2154  -19.4399    0.0000 C   0  0  0  0  0  0  0  0  0  0  0  0
   25.0206  -16.2402    0.0000 C   0  0  0  0  0  0  0  0  0  0  0  0
   26.2146  -15.5496    0.0000 C   0  0  0  0  0  0  0  0  0  0  0  0
   27.4684  -16.2582    0.0000 C   0  0  0  0  0  0  0  0  0  0  0  0
   27.4581  -17.6570    0.0000 N   0  0  0  0  0  0  0  0  0  0  0  0
   26.2641  -18.3476    0.0000 C   0  0  0  0  0  0  0  0  0  0  0  0
   28.6624  -15.5676    0.0000 N   0  0  0  0  0  0  0  0  0  0  0  0
   26.1549  -14.1509    0.0000 F   0  0  0  0  0  0  0  0  0  0  0  0
   26.2538  -19.7463    0.0000 O   0  0  0  0  0  0  0  0  0  0  0  0
   28.2100  -13.7900    0.0000 N   0  0  0  0  0  0  0  0  0  0  0  0
   28.2100  -15.2600    0.0000 C   0  0  0  0  0  0  0  0  0  0  0  0
   27.0200  -15.9600    0.0000 N   0  0  0  0  0  0  0  0  0  0  0  0
   25.8300  -15.2600    0.0000 C   0  0  0  0  0  0  0  0  0  0  0  0
   25.8300  -13.7900    0.0000 C   0  0  0  0  0  0  0  0  0  0  0  0
   27.0200  -13.0900    0.0000 C   0  0  0  0  0  0  0  0  0  0  0  0
   24.5000  -15.6800    0.0000 N   0  0  0  0  0  0  0  0  0  0  0  0
   23.7300  -14.5600    0.0000 C   0  0  0  0  0  0  0  0  0  0  0  0
   24.5000  -13.3700    0.0000 N   0  0  0  0  0  0  0  0  0  0  0  0
   27.0200  -11.7600    0.0000 N   0  0  0  0  0  0  0  0  0  0  0  0
   24.5000  -17.0800    0.0000 C   0  0  0  0  0  0  0  0  0  0  0  0
   23.3100  -17.7800    0.0000 C   0  0  0  0  0  0  0  0  0  0  0  0
   22.0500  -17.0800    0.0000 O   0  0  0  0  0  0  0  0  0  0  0  0
   21.0000  -17.7800    0.0000 C   0  0  0  0  0  0  0  0  0  0  0  0
   19.7400  -17.0800    0.0000 P   0  0  0  0  0  0  0  0  0  0  0  0
   23.3100  -19.1100    0.0000 C   0  0  0  0  0  0  0  0  0  0  0  0
   18.4800  -16.3800    0.0000 O   0  0  0  0  0  0  0  0  0  0  0  0
   20.4400  -15.8200    0.0000 O   0  0  0  0  0  0  0  0  0  0  0  0
   18.6200  -18.2700    0.0000 N   0  0  0  0  0  0  0  0  0  0  0  0
   17.0800  -16.3800    0.0000 C   0  0  0  0  0  0  0  0  0  0  0  0
   16.3800  -15.1900    0.0000 C   0  0  0  0  0  0  0  0  0  0  0  0
   14.9800  -15.1900    0.0000 C   0  0  0  0  0  0  0  0  0  0  0  0
   14.2800  -16.3800    0.0000 C   0  0  0  0  0  0  0  0  0  0  0  0
   14.9800  -17.5700    0.0000 C   0  0  0  0  0  0  0  0  0  0  0  0
   16.3800  -17.5700    0.0000 C   0  0  0  0  0  0  0  0  0  0  0  0
   18.6200  -19.6700    0.0000 C   0  0  0  0  0  0  0  0  0  0  0  0
   17.4300  -20.3700    0.0000 C   0  0  0  0  0  0  0  0  0  0  0  0
   19.8100  -20.3700    0.0000 C   0  0  0  0  0  0  0  0  0  0  0  0
   16.2400  -19.6700    0.0000 O   0  0  0  0  0  0  0  0  0  0  0  0
   17.4300  -21.7700    0.0000 O   0  0  0  0  0  0  0  0  0  0  0  0
   15.0500  -20.3700    0.0000 C   0  0  0  0  0  0  0  0  0  0  0  0
   13.8600  -19.6700    0.0000 C   0  0  0  0  0  0  0  0  0  0  0  0
   15.0500  -21.7700    0.0000 C   0  0  0  0  0  0  0  0  0  0  0  0
   34.5800  -17.5000    0.0000 C   0  0  0  0  0  0  0  0  0  0  0  0
   35.7924  -18.2000    0.0000 C   0  0  0  0  0  0  0  0  0  0  0  0
   33.3676  -18.2000    0.0000 O   0  0  0  0  0  0  0  0  0  0  0  0
   34.5800  -16.1000    0.0000 O   0  0  0  0  0  0  0  0  0  0  0  0
   36.9879  -17.5096    0.0000 C   0  0  0  0  0  0  0  0  0  0  0  0
   38.1753  -18.1951    0.0000 C   0  0  0  0  0  0  0  0  0  0  0  0
   39.3665  -17.5071    0.0000 O   0  0  0  0  0  0  0  0  0  0  0  0
   38.1755  -19.5998    0.0000 O   0  0  0  0  0  0  0  0  0  0  0  0
   28.2100  -13.7900    0.0000 N   0  0  0  0  0  0  0  0  0  0  0  0
   28.2100  -15.2600    0.0000 C   0  0  0  0  0  0  0  0  0  0  0  0
   27.0200  -15.9600    0.0000 N   0  0  0  0  0  0  0  0  0  0  0  0
   25.8300  -15.2600    0.0000 C   0  0  0  0  0  0  0  0  0  0  0  0
   25.8300  -13.7900    0.0000 C   0  0  0  0  0  0  0  0  0  0  0  0
   27.0200  -13.0900    0.0000 C   0  0  0  0  0  0  0  0  0  0  0  0
   27.0200  -11.7600    0.0000 N   0  0  0  0  0  0  0  0  0  0  0  0
   24.5000  -13.3700    0.0000 N   0  0  0  0  0  0  0  0  0  0  0  0
   23.7300  -14.5600    0.0000 C   0  0  0  0  0  0  0  0  0  0  0  0
   24.5000  -15.6800    0.0000 N   0  0  0  0  0  0  0  0  0  0  0  0
   24.5000  -17.0800    0.0000 C   0  0  0  0  0  0  0  0  0  0  0  0
   23.3100  -17.7800    0.0000 C   0  0  0  0  0  0  0  0  0  0  0  0
   22.0500  -17.0800    0.0000 O   0  0  0  0  0  0  0  0  0  0  0  0
   21.0000  -17.7800    0.0000 C   0  0  0  0  0  0  0  0  0  0  0  0
   19.7400  -17.0800    0.0000 P   0  0  0  0  0  0  0  0  0  0  0  0
   18.4800  -16.3800    0.0000 O   0  0  0  0  0  0  0  0  0  0  0  0
   17.0800  -16.3800    0.0000 C   0  0  0  0  0  0  0  0  0  0  0  0
   16.3800  -15.1900    0.0000 C   0  0  0  0  0  0  0  0  0  0  0  0
   14.9800  -15.1900    0.0000 C   0  0  0  0  0  0  0  0  0  0  0  0
   14.2800  -16.3800    0.0000 C   0  0  0  0  0  0  0  0  0  0  0  0
   14.9800  -17.5700    0.0000 C   0  0  0  0  0  0  0  0  0  0  0  0
   16.3800  -17.5700    0.0000 C   0  0  0  0  0  0  0  0  0  0  0  0
   20.4400  -15.8200    0.0000 O   0  0  0  0  0  0  0  0  0  0  0  0
   18.6200  -18.2700    0.0000 N   0  0  0  0  0  0  0  0  0  0  0  0
   18.6200  -19.6700    0.0000 C   0  0  0  0  0  0  0  0  0  0  0  0
   17.4300  -20.3700    0.0000 C   0  0  0  0  0  0  0  0  0  0  0  0
   16.2400  -19.6700    0.0000 O   0  0  0  0  0  0  0  0  0  0  0  0
   15.0500  -20.3700    0.0000 C   0  0  0  0  0  0  0  0  0  0  0  0
   13.8600  -19.6700    0.0000 C   0  0  0  0  0  0  0  0  0  0  0  0
   15.0500  -21.7700    0.0000 C   0  0  0  0  0  0  0  0  0  0  0  0
   17.4300  -21.7700    0.0000 O   0  0  0  0  0  0  0  0  0  0  0  0
   19.8100  -20.3700    0.0000 C   0  0  0  0  0  0  0  0  0  0  0  0
   23.3100  -19.1100    0.0000 C   0  0  0  0  0  0  0  0  0  0  0  0
   22.5400  -22.2600    0.0000 N   0  0  0  0  0  0  0  0  0  0  0  0
   22.5400  -23.7300    0.0000 C   0  0  0  0  0  0  0  0  0  0  0  0
   21.3500  -24.4300    0.0000 N   0  0  0  0  0  0  0  0  0  0  0  0
   20.0900  -23.7300    0.0000 C   0  0  0  0  0  0  0  0  0  0  0  0
   20.0900  -22.2600    0.0000 C   0  0  0  0  0  0  0  0  0  0  0  0
   21.3500  -21.5600    0.0000 C   0  0  0  0  0  0  0  0  0  0  0  0
   18.7600  -24.1500    0.0000 N   0  0  0  0  0  0  0  0  0  0  0  0
   17.9900  -23.0300    0.0000 C   0  0  0  0  0  0  0  0  0  0  0  0
   18.7600  -21.8400    0.0000 N   0  0  0  0  0  0  0  0  0  0  0  0
   21.3500  -20.1600    0.0000 N   0  0  0  0  0  0  0  0  0  0  0  0
   18.7600  -25.5500    0.0000 C   0  0  0  0  0  0  0  0  0  0  0  0
   17.5700  -26.2500    0.0000 C   0  0  0  0  0  0  0  0  0  0  0  0
   16.3100  -25.5500    0.0000 O   0  0  0  0  0  0  0  0  0  0  0  0
   15.2600  -26.2500    0.0000 C   0  0  0  0  0  0  0  0  0  0  0  0
   14.0000  -25.5500    0.0000 P   0  0  0  0  0  0  0  0  0  0  0  0
   17.5700  -27.5800    0.0000 C   0  0  0  0  0  0  0  0  0  0  0  0
   12.7400  -24.8500    0.0000 O   0  0  0  0  0  0  0  0  0  0  0  0
   14.7000  -24.2900    0.0000 O   0  0  0  0  0  0  0  0  0  0  0  0
   12.8800  -26.7400    0.0000 N   0  0  0  0  0  0  0  0  0  0  0  0
   11.3400  -24.8500    0.0000 C   0  0  0  0  0  0  0  0  0  0  0  0
   10.6400  -23.6376    0.0000 C   0  0  0  0  0  0  0  0  0  0  0  0
    9.2400  -23.6376    0.0000 C   0  0  0  0  0  0  0  0  0  0  0  0
    8.5400  -24.8500    0.0000 C   0  0  0  0  0  0  0  0  0  0  0  0
    9.2400  -26.0624    0.0000 C   0  0  0  0  0  0  0  0  0  0  0  0
   10.6400  -26.0624    0.0000 C   0  0  0  0  0  0  0  0  0  0  0  0
   12.8800  -28.1400    0.0000 C   0  0  0  0  0  0  0  0  0  0  0  0
   11.6676  -28.8400    0.0000 C   0  0  0  0  0  0  0  0  0  0  0  0
   14.0924  -28.8400    0.0000 C   0  0  0  0  0  0  0  0  0  0  0  0
   10.4721  -28.1496    0.0000 O   0  0  0  0  0  0  0  0  0  0  0  0
   11.6675  -30.2398    0.0000 O   0  0  0  0  0  0  0  0  0  0  0  0
    9.2847  -28.8351    0.0000 C   0  0  0  0  0  0  0  0  0  0  0  0
    8.0935  -28.1471    0.0000 C   0  0  0  0  0  0  0  0  0  0  0  0
    9.2845  -30.2398    0.0000 C   0  0  0  0  0  0  0  0  0  0  0  0
  1  2  2  0
  2  3  1  0
  3  4  2  0
  4  5  1  0
  5  6  2  0
  1  6  1  0
  4  7  1  0
  7  8  1  0
  8  9  2  0
  9 10  1  0
 10 11  1  0
 11 12  1  0
 12 13  1  0
 13 14  1  0
 10 15  2  0
 15 16  1  0
 16 17  2  0
  8 17  1  0
 12 18  2  0
 18 19  1  0
 15 19  1  0
 19 20  1  0
 20 21  1  0
 21 22  1  0
 21 23  1  0
 20 24  1  6
 24 25  1  0
 11 26  2  0
  3 27  1  0
  2 28  1  0
 17 29  1  0
 29 30  1  0
 13 31  2  0
 32 33  1  6
 32 34  1  0
 32 35  1  0
 34 36  1  0
 35 37  1  0
 38 36  1  6
 37 39  1  0
 37 40  2  0
 38 41  1  0
 38 42  1  0
 39 43  1  0
 41 44  1  0
 42 45  1  0
 43 46  1  0
 44 47  2  0
 44 48  1  0
 45 49  1  0
 45 50  2  0
 46 51  1  0
 46 52  2  0
 47 53  1  0
 48 54  2  0
 49 55  1  0
 51 56  1  0
 51 57  1  0
 53 58  2  0
 55 59  1  0
 56 60  1  0
 59 61  2  0
 59 62  1  0
 60 63  1  0
 60 64  2  0
 61 65  1  0
 62 66  1  0
 63 67  2  0
 64 68  1  0
 67 69  1  0
 69 70  1  0
 69 71  1  0
 54 58  1  0
 65 66  2  0
 67 68  1  0
 33 72  1  0
 72 73  2  0
 73 74  1  0
 74 75  2  0
 75 76  1  0
 76 77  2  0
 72 77  1  0
 39 78  1  1
 78 79  1  0
 79 80  1  0
 80 81  1  0
 81 82  1  0
 82 83  1  0
 83 84  1  0
 84 85  1  0
 80 85  1  0
 93 91  1  0
 89 90  1  0
 87 86  1  6
 88 89  1  6
 91 88  1  0
 86 94  1  0
 94 95  2  0
 95 96  1  0
 96 97  2  0
 97 98  1  0
 98 86  1  0
 88 92  1  0
 96 99  1  0
 92 87  1  0
 95100  1  0
 87 93  1  0
 98101  2  0
135136  1  0
135137  1  0
135138  2  0
136139  2  0
139140  1  0
140141  1  0
140142  2  0
102103  2  0
103104  1  0
104105  2  0
105106  1  0
106107  2  0
102107  1  0
105108  1  0
108109  1  0
109110  2  0
106110  1  0
107111  1  0
108112  1  0
112113  1  0
113114  1  0
114115  1  0
116115  1  1
113117  1  1
116118  1  0
116119  2  0
116120  1  0
118121  1  0
121122  2  0
122123  1  0
123124  2  0
124125  1  0
125126  2  0
121126  1  0
120127  1  0
127128  1  0
127129  1  1
128130  1  0
128131  2  0
130132  1  0
132133  1  0
132134  1  0
143144  2  0
144145  1  0
145146  2  0
146147  1  0
147148  2  0
143148  1  0
146152  1  0
152151  1  0
151150  2  0
147150  1  0
148149  1  0
152153  1  0
153154  1  0
154155  1  0
155156  1  0
157156  1  1
154175  1  1
157158  1  0
157165  2  0
157166  1  0
158159  1  0
159160  2  0
160161  1  0
161162  2  0
162163  1  0
163164  2  0
159164  1  0
166167  1  0
167168  1  0
167174  1  1
168169  1  0
168173  2  0
169170  1  0
170171  1  0
170172  1  0
176177  2  0
177178  1  0
178179  2  0
179180  1  0
180181  2  0
176181  1  0
179182  1  0
182183  1  0
183184  2  0
180184  1  0
181185  1  0
182186  1  0
186187  1  0
187188  1  0
188189  1  0
190189  1  1
187191  1  1
190192  1  0
190193  2  0
190194  1  0
192195  1  0
195196  2  0
196197  1  0
197198  2  0
198199  1  0
199200  2  0
195200  1  0
194201  1  0
201202  1  0
201203  1  1
202204  1  0
202205  2  0
204206  1  0
206207  1  0
206208  1  0
M  END
