 
     RDKit          2D

 85 90  0  0  1  0  0  0  0  0999 V2000
   13.8431  -16.3485    0.0000 C   0  0  0  0  0  0  0  0  0  0  0  0
   13.2356  -17.4333    0.0000 C   0  0  0  0  0  0  0  0  0  0  0  0
   14.7557  -16.0447    0.0000 C   0  0  0  0  0  0  0  0  0  0  0  0
   12.1510  -16.3483    0.0000 O   0  0  0  0  0  0  0  0  0  0  0  0
   14.4507  -16.9126    0.0000 C   0  0  0  0  0  0  0  0  0  0  0  0
   13.7997  -15.0466    0.0000 N   0  0  0  0  0  0  0  0  0  0  0  0
   16.3658  -16.0447    0.0000 C   0  0  0  0  0  0  0  0  0  0  0  0
   16.0998  -16.9126    0.0000 C   0  0  0  0  0  0  0  0  0  0  0  0
   12.5412  -14.4391    0.0000 C   0  0  0  0  0  0  0  0  0  0  0  0
   17.3148  -17.4768    0.0000 C   0  0  0  0  0  0  0  0  0  0  0  0
   13.7997  -13.7001    0.0000 C   0  0  0  0  0  0  0  0  0  0  0  0
   18.2669  -18.4289    0.0000 O   0  0  0  0  0  0  0  0  0  0  0  0
   19.6133  -18.4289    0.0000 C   0  0  0  0  0  0  0  0  0  0  0  0
   20.2804  -19.5842    0.0000 O   0  0  0  0  0  0  0  0  0  0  0  0
   20.2908  -17.2555    0.0000 C   0  0  0  0  0  0  0  0  0  0  0  0
   21.6291  -17.2556    0.0000 C   0  0  0  0  0  0  0  0  0  0  0  0
   19.6229  -16.0986    0.0000 C   0  0  0  0  0  0  0  0  0  0  0  0
   22.4284  -18.3560    0.0000 S   0  0  0  0  0  0  0  0  0  0  0  0
   23.7218  -17.9357    0.0000 C   0  0  0  0  0  0  0  0  0  0  0  0
   23.7219  -16.5757    0.0000 C   0  0  0  0  0  0  0  0  0  0  0  0
   22.4285  -16.1554    0.0000 C   0  0  0  0  0  0  0  0  0  0  0  0
   20.9640  -16.0894    0.0000 O   0  0  0  0  0  0  0  0  0  0  0  0
   18.2764  -16.0986    0.0000 C   0  0  0  0  0  0  0  0  0  0  0  0
   20.0390  -14.8181    0.0000 S   0  0  0  0  0  0  0  0  0  0  0  0
   18.9496  -14.0267    0.0000 C   0  0  0  0  0  0  0  0  0  0  0  0
   17.8604  -14.8181    0.0000 C   0  0  0  0  0  0  0  0  0  0  0  0
   10.4374  -12.8227    0.0000 Br  0  0  0  0  0  0  0  0  0  0  0  0
   26.8341  -17.6591    0.0000 O   0  0  0  0  0  0  0  0  0  0  0  0
   11.1300  -18.6200    0.0000 C   0  0  0  0  0  0  0  0  0  0  0  0
   11.1300  -17.2200    0.0000 N   0  0  0  0  0  0  0  0  0  0  0  0
   12.3200  -16.5200    0.0000 C   0  0  0  0  0  0  0  0  0  0  0  0
   13.5100  -17.2200    0.0000 C   0  0  0  0  0  0  0  0  0  0  0  0
   13.5100  -18.6200    0.0000 O   0  0  0  0  0  0  0  0  0  0  0  0
   12.3200  -19.3200    0.0000 C   0  0  0  0  0  0  0  0  0  0  0  0
   12.3200  -15.1200    0.0000 C   0  0  0  0  0  0  0  0  0  0  0  0
   13.5100  -14.4200    0.0000 C   0  0  0  0  0  0  0  0  0  0  0  0
   14.7700  -15.1200    0.0000 C   0  0  0  0  0  0  0  0  0  0  0  0
   14.7700  -16.5200    0.0000 C   0  0  0  0  0  0  0  0  0  0  0  0
    9.8700  -19.3200    0.0000 O   0  0  0  0  0  0  0  0  0  0  0  0
   13.5100  -13.0200    0.0000 O   0  0  0  0  0  0  0  0  0  0  0  0
   15.9600  -17.2200    0.0000 C   0  0  0  0  0  0  0  0  0  0  0  0
   17.1500  -16.5200    0.0000 C   0  0  0  0  0  0  0  0  0  0  0  0
   15.9600  -18.6200    0.0000 O   0  0  0  0  0  0  0  0  0  0  0  0
   18.3400  -17.2200    0.0000 N   0  0  0  0  0  0  0  0  0  0  0  0
   19.5300  -16.5200    0.0000 C   0  0  0  0  0  0  0  0  0  0  0  0
   20.7200  -17.2200    0.0000 C   0  0  0  0  0  0  0  0  0  0  0  0
   21.9800  -16.5200    0.0000 C   0  0  0  0  0  0  0  0  0  0  0  0
   18.8300  -15.3300    0.0000 C   0  0  0  0  0  0  0  0  0  0  0  0
   20.2300  -15.3300    0.0000 C   0  0  0  0  0  0  0  0  0  0  0  0
   21.9800  -15.1200    0.0000 C   0  0  0  0  0  0  0  0  0  0  0  0
   23.1700  -14.4200    0.0000 C   0  0  0  0  0  0  0  0  0  0  0  0
   24.3600  -15.1200    0.0000 C   0  0  0  0  0  0  0  0  0  0  0  0
   24.3600  -16.5200    0.0000 C   0  0  0  0  0  0  0  0  0  0  0  0
   23.1700  -17.2200    0.0000 C   0  0  0  0  0  0  0  0  0  0  0  0
   25.6200  -14.4200    0.0000 O   0  0  0  0  0  0  0  0  0  0  0  0
   26.8100  -15.1200    0.0000 C   0  0  0  0  0  0  0  0  0  0  0  0
   26.6700  -19.5300    0.0000 Cl  0  0  0  0  0  0  0  0  0  0  0  0
   11.4100  -18.6200    0.0000 C   0  0  0  0  0  0  0  0  0  0  0  0
   11.4100  -17.2200    0.0000 N   0  0  0  0  0  0  0  0  0  0  0  0
   12.6000  -16.5200    0.0000 C   0  0  0  0  0  0  0  0  0  0  0  0
   13.7900  -17.2200    0.0000 C   0  0  0  0  0  0  0  0  0  0  0  0
   13.7900  -18.6200    0.0000 O   0  0  0  0  0  0  0  0  0  0  0  0
   12.6000  -19.3200    0.0000 C   0  0  0  0  0  0  0  0  0  0  0  0
   12.6000  -15.1200    0.0000 C   0  0  0  0  0  0  0  0  0  0  0  0
   13.7900  -14.4200    0.0000 C   0  0  0  0  0  0  0  0  0  0  0  0
   15.0500  -15.1200    0.0000 C   0  0  0  0  0  0  0  0  0  0  0  0
   15.0500  -16.5200    0.0000 C   0  0  0  0  0  0  0  0  0  0  0  0
   10.1500  -19.3200    0.0000 O   0  0  0  0  0  0  0  0  0  0  0  0
   13.7900  -13.0200    0.0000 O   0  0  0  0  0  0  0  0  0  0  0  0
   16.2400  -17.2200    0.0000 C   0  0  0  0  0  0  0  0  0  0  0  0
   17.4300  -16.5200    0.0000 C   0  0  0  0  0  0  0  0  0  0  0  0
   16.2400  -18.6200    0.0000 O   0  0  0  0  0  0  0  0  0  0  0  0
   18.6200  -17.2200    0.0000 N   0  0  0  0  0  0  0  0  0  0  0  0
   19.8100  -16.5200    0.0000 C   0  0  0  0  0  0  0  0  0  0  0  0
   21.0000  -17.2200    0.0000 C   0  0  0  0  0  0  0  0  0  0  0  0
   22.2600  -16.5200    0.0000 C   0  0  0  0  0  0  0  0  0  0  0  0
   19.1100  -15.3300    0.0000 C   0  0  0  0  0  0  0  0  0  0  0  0
   20.5100  -15.3300    0.0000 C   0  0  0  0  0  0  0  0  0  0  0  0
   22.2600  -15.1200    0.0000 C   0  0  0  0  0  0  0  0  0  0  0  0
   23.4500  -14.4200    0.0000 C   0  0  0  0  0  0  0  0  0  0  0  0
   24.6400  -15.1200    0.0000 C   0  0  0  0  0  0  0  0  0  0  0  0
   24.6400  -16.5200    0.0000 C   0  0  0  0  0  0  0  0  0  0  0  0
   23.4500  -17.2200    0.0000 C   0  0  0  0  0  0  0  0  0  0  0  0
   25.9000  -14.4200    0.0000 O   0  0  0  0  0  0  0  0  0  0  0  0
   27.0900  -15.1200    0.0000 C   0  0  0  0  0  0  0  0  0  0  0  0
  1  2  1  0
  1  3  1  0
  1  4  1  6
  2  5  1  0
  3  6  1  0
  3  7  1  1
  5  8  1  6
  6  9  1  0
  7 10  1  0
  2  4  1  6
  5  6  1  0
  8 10  1  0
  6 11  1  0
 10 12  1  0
 12 13  1  0
 13 14  2  0
 13 15  1  0
 15 16  1  0
 15 17  1  0
 16 18  1  0
 18 19  1  0
 19 20  2  0
 20 21  1  0
 16 21  2  0
 15 22  1  0
 17 23  2  0
 17 24  1  0
 24 25  1  0
 25 26  2  0
 23 26  1  0
 29 30  1  0
 30 31  1  0
 31 32  2  0
 32 33  1  0
 33 34  1  0
 29 34  1  0
 31 35  1  0
 35 36  2  0
 36 37  1  0
 37 38  2  0
 32 38  1  0
 29 39  2  0
 36 40  1  0
 38 41  1  0
 41 42  1  0
 41 43  1  6
 42 44  1  0
 44 45  1  0
 45 46  1  0
 46 47  1  0
 45 48  1  0
 45 49  1  0
 47 50  2  0
 50 51  1  0
 51 52  2  0
 52 53  1  0
 53 54  2  0
 47 54  1  0
 52 55  1  0
 55 56  1  0
 58 59  1  0
 59 60  1  0
 60 61  2  0
 61 62  1  0
 62 63  1  0
 58 63  1  0
 60 64  1  0
 64 65  2  0
 65 66  1  0
 66 67  2  0
 61 67  1  0
 58 68  2  0
 65 69  1  0
 67 70  1  0
 70 71  1  0
 70 72  1  6
 71 73  1  0
 73 74  1  0
 74 75  1  0
 75 76  1  0
 74 77  1  0
 74 78  1  0
 76 79  2  0
 79 80  1  0
 80 81  2  0
 81 82  1  0
 82 83  2  0
 76 83  1  0
 81 84  1  0
 84 85  1  0
M  CHG  2   6   1  27  -1
M  END
