86278352
     RDKit          2D

 36 36  0  0  1  0  0  0  0  0999 V2000
    3.5400    5.1682    0.0000 S   0  0  0  0  0  0  0  0  0  0  0  0
    2.8677    3.0991    0.0000 O   0  0  0  0  0  0  0  0  0  0  0  0
    6.3879    3.0991    0.0000 O   0  0  0  0  0  0  0  0  0  0  0  0
    8.0919   -3.1797    0.0000 O   0  0  0  0  0  0  0  0  0  0  0  0
    9.8239   -4.1797    0.0000 O   0  0  0  0  0  0  0  0  0  0  0  0
    9.8239   -6.1797    0.0000 O   0  0  0  0  0  0  0  0  0  0  0  0
    4.6278   -0.1797    0.0000 O   0  0  0  0  0  0  0  0  0  0  0  0
    3.1779    8.6133    0.0000 O   0  0  0  0  0  0  0  0  0  0  0  0
    4.7602    7.9088    0.0000 O   0  0  0  0  0  0  0  0  0  0  0  0
   12.4220   -4.6797    0.0000 O   0  0  0  0  0  0  0  0  0  0  0  0
   10.6900   -8.6797    0.0000 O   0  0  0  0  0  0  0  0  0  0  0  0
    4.6278    2.8203    0.0000 N   0  0  0  0  0  0  0  0  0  0  0  0
    6.3598   -0.1797    0.0000 N   0  0  0  0  0  0  0  0  0  0  0  0
    2.3644    6.7862    0.0000 N   0  0  0  0  0  0  0  0  0  0  0  0
    4.1278    4.3592    0.0000 C   0  0  0  0  0  0  0  0  0  0  0  0
    5.1278    4.3592    0.0000 C   0  0  0  0  0  0  0  0  0  0  0  0
    3.8188    3.4081    0.0000 C   0  0  0  0  0  0  0  0  0  0  0  0
    4.6278    1.8203    0.0000 C   0  0  0  0  0  0  0  0  0  0  0  0
    5.4368    3.4081    0.0000 C   0  0  0  0  0  0  0  0  0  0  0  0
    5.4938    1.3203    0.0000 C   0  0  0  0  0  0  0  0  0  0  0  0
    3.9467    6.0817    0.0000 C   0  0  0  0  0  0  0  0  0  0  0  0
    5.4938    0.3203    0.0000 C   0  0  0  0  0  0  0  0  0  0  0  0
    3.3590    6.8907    0.0000 C   0  0  0  0  0  0  0  0  0  0  0  0
    6.3598   -1.1797    0.0000 C   0  0  0  0  0  0  0  0  0  0  0  0
    7.2259   -1.6797    0.0000 C   0  0  0  0  0  0  0  0  0  0  0  0
    8.9579   -4.6797    0.0000 C   0  0  0  0  0  0  0  0  0  0  0  0
    7.2259   -2.6797    0.0000 C   0  0  0  0  0  0  0  0  0  0  0  0
    8.0919   -4.1797    0.0000 C   0  0  0  0  0  0  0  0  0  0  0  0
    8.9579   -5.6797    0.0000 C   0  0  0  0  0  0  0  0  0  0  0  0
    3.7657    7.8043    0.0000 C   0  0  0  0  0  0  0  0  0  0  0  0
   10.6900   -4.6797    0.0000 C   0  0  0  0  0  0  0  0  0  0  0  0
    9.8239   -7.1797    0.0000 C   0  0  0  0  0  0  0  0  0  0  0  0
   11.5560   -4.1797    0.0000 C   0  0  0  0  0  0  0  0  0  0  0  0
   10.6900   -7.6797    0.0000 C   0  0  0  0  0  0  0  0  0  0  0  0
   13.2880   -4.1797    0.0000 C   0  0  0  0  0  0  0  0  0  0  0  0
   11.5560   -9.1797    0.0000 C   0  0  0  0  0  0  0  0  0  0  0  0
  1 15  1  0
  1 21  1  0
  2 17  2  0
  3 19  2  0
  4 27  1  0
  4 28  1  0
  5 26  1  0
  5 31  1  0
  6 29  1  0
  6 32  1  0
  7 22  2  0
  8 30  1  0
  9 30  2  0
 10 33  1  0
 10 35  1  0
 11 34  1  0
 11 36  1  0
 12 17  1  0
 12 18  1  0
 12 19  1  0
 13 22  1  0
 13 24  1  0
 23 14  1  6
 15 16  1  0
 15 17  1  0
 16 19  1  0
 18 20  1  0
 20 22  1  0
 21 23  1  0
 23 30  1  0
 24 25  1  0
 25 27  1  0
 26 28  1  0
 26 29  1  0
 31 33  1  0
 32 34  1  0
M  END
