 
     RDKit          2D

161168  0  0  1  0  0  0  0  0999 V2000
   27.2395  -17.2356    0.0000 C   0  0  0  0  0  0  0  0  0  0  0  0
   15.6253  -19.5293    0.0000 C   0  0  0  0  0  0  0  0  0  0  0  0
   16.7868  -20.2017    0.0000 O   0  0  0  0  0  0  0  0  0  0  0  0
   17.9482  -19.5293    0.0000 C   0  0  0  0  0  0  0  0  0  0  0  0
   19.1096  -20.2017    0.0000 N   0  0  0  0  0  0  0  0  0  0  0  0
   20.2710  -19.5293    0.0000 C   0  0  0  0  0  0  0  0  0  0  0  0
   21.4324  -20.2017    0.0000 C   0  0  0  0  0  0  0  0  0  0  0  0
   22.5939  -19.5293    0.0000 N   0  0  0  0  0  0  0  0  0  0  0  0
   23.7553  -20.2017    0.0000 C   0  0  0  0  0  0  0  0  0  0  0  0
   24.9167  -19.5293    0.0000 C   0  0  0  0  0  0  0  0  0  0  0  0
   26.0781  -20.2017    0.0000 C   0  0  0  0  0  0  0  0  0  0  0  0
   27.2395  -19.5293    0.0000 N   0  0  0  0  0  0  0  0  0  0  0  0
   28.4010  -20.2017    0.0000 N   0  0  0  0  0  0  0  0  0  0  0  0
   29.5624  -19.5293    0.0000 C   0  0  0  0  0  0  0  0  0  0  0  0
   30.7238  -20.2017    0.0000 C   0  0  0  0  0  0  0  0  0  0  0  0
   31.8851  -19.5293    0.0000 N   0  0  0  0  0  0  0  0  0  0  0  0
   33.0467  -20.2017    0.0000 C   0  0  0  0  0  0  0  0  0  0  0  0
   34.2081  -19.5293    0.0000 O   0  0  0  0  0  0  0  0  0  0  0  0
   35.3695  -20.2017    0.0000 C   0  0  0  0  0  0  0  0  0  0  0  0
   17.9482  -18.1844    0.0000 O   0  0  0  0  0  0  0  0  0  0  0  0
   20.2710  -17.0353    0.0000 C   0  0  0  0  0  0  0  0  0  0  0  0
   20.3275  -15.6905    0.0000 C   0  0  0  0  0  0  0  0  0  0  0  0
   21.4324  -21.5465    0.0000 O   0  0  0  0  0  0  0  0  0  0  0  0
   23.7553  -21.5465    0.0000 C   0  0  0  0  0  0  0  0  0  0  0  0
   24.9200  -22.2189    0.0000 C   0  0  0  0  0  0  0  0  0  0  0  0
   24.9164  -23.5637    0.0000 C   0  0  0  0  0  0  0  0  0  0  0  0
   26.0810  -24.2361    0.0000 C   0  0  0  0  0  0  0  0  0  0  0  0
   27.2456  -23.5637    0.0000 C   0  0  0  0  0  0  0  0  0  0  0  0
   27.2456  -22.2189    0.0000 C   0  0  0  0  0  0  0  0  0  0  0  0
   26.0810  -21.5465    0.0000 C   0  0  0  0  0  0  0  0  0  0  0  0
   24.9167  -18.1844    0.0000 O   0  0  0  0  0  0  0  0  0  0  0  0
   29.5624  -18.1844    0.0000 O   0  0  0  0  0  0  0  0  0  0  0  0
   30.7238  -22.4923    0.0000 C   0  0  0  0  0  0  0  0  0  0  0  0
   30.7169  -23.8372    0.0000 C   0  0  0  0  0  0  0  0  0  0  0  0
   33.0467  -21.5465    0.0000 O   0  0  0  0  0  0  0  0  0  0  0  0
   21.6085  -17.0283    0.0000 C   0  0  0  0  0  0  0  0  0  0  0  0
   18.8980  -17.0426    0.0000 C   0  0  0  0  0  0  0  0  0  0  0  0
   28.4182  -16.5553    0.0000 C   0  0  0  0  0  0  0  0  0  0  0  0
   29.5595  -17.2144    0.0000 C   0  0  0  0  0  0  0  0  0  0  0  0
   30.7334  -16.5368    0.0000 C   0  0  0  0  0  0  0  0  0  0  0  0
   30.7336  -15.1814    0.0000 C   0  0  0  0  0  0  0  0  0  0  0  0
   29.5923  -14.5223    0.0000 C   0  0  0  0  0  0  0  0  0  0  0  0
   28.4184  -15.1999    0.0000 C   0  0  0  0  0  0  0  0  0  0  0  0
   31.9257  -14.4931    0.0000 C   0  0  0  0  0  0  0  0  0  0  0  0
   33.0920  -15.1666    0.0000 N   0  0  0  0  0  0  0  0  0  0  0  0
   34.2659  -14.4889    0.0000 C   0  0  0  0  0  0  0  0  0  0  0  0
   34.2660  -13.1335    0.0000 C   0  0  0  0  0  0  0  0  0  0  0  0
   33.0997  -12.4600    0.0000 C   0  0  0  0  0  0  0  0  0  0  0  0
   31.9258  -13.1376    0.0000 C   0  0  0  0  0  0  0  0  0  0  0  0
   32.0455  -22.4959    0.0000 C   0  0  0  0  0  0  0  0  0  0  0  0
   29.3347  -22.4886    0.0000 C   0  0  0  0  0  0  0  0  0  0  0  0
   16.6884  -22.8888    0.0000 S   0  0  0  0  0  0  0  0  0  0  0  0
   15.3382  -22.8888    0.0000 O   0  0  0  0  0  0  0  0  0  0  0  0
   18.0386  -22.8888    0.0000 O   0  0  0  0  0  0  0  0  0  0  0  0
   16.6829  -21.5330    0.0000 O   0  0  0  0  0  0  0  0  0  0  0  0
   16.6829  -24.2390    0.0000 O   0  0  0  0  0  0  0  0  0  0  0  0
   28.7700  -21.7700    0.0000 C   0  0  0  0  0  0  0  0  0  0  0  0
   17.1500  -24.0800    0.0000 C   0  0  0  0  0  0  0  0  0  0  0  0
   18.3400  -24.7800    0.0000 O   0  0  0  0  0  0  0  0  0  0  0  0
   19.4600  -24.0800    0.0000 C   0  0  0  0  0  0  0  0  0  0  0  0
   20.6500  -24.7800    0.0000 N   0  0  0  0  0  0  0  0  0  0  0  0
   21.8400  -24.0800    0.0000 C   0  0  0  0  0  0  0  0  0  0  0  0
   22.9600  -24.7800    0.0000 C   0  0  0  0  0  0  0  0  0  0  0  0
   24.1500  -24.0800    0.0000 N   0  0  0  0  0  0  0  0  0  0  0  0
   25.2700  -24.7800    0.0000 C   0  0  0  0  0  0  0  0  0  0  0  0
   26.4600  -24.0800    0.0000 C   0  0  0  0  0  0  0  0  0  0  0  0
   27.6500  -24.7800    0.0000 C   0  0  0  0  0  0  0  0  0  0  0  0
   28.7700  -24.0800    0.0000 N   0  0  0  0  0  0  0  0  0  0  0  0
   29.9600  -24.7800    0.0000 N   0  0  0  0  0  0  0  0  0  0  0  0
   31.0800  -24.0800    0.0000 C   0  0  0  0  0  0  0  0  0  0  0  0
   32.2700  -24.7800    0.0000 C   0  0  0  0  0  0  0  0  0  0  0  0
   33.3900  -24.0800    0.0000 N   0  0  0  0  0  0  0  0  0  0  0  0
   34.5800  -24.7800    0.0000 C   0  0  0  0  0  0  0  0  0  0  0  0
   35.7700  -24.0800    0.0000 O   0  0  0  0  0  0  0  0  0  0  0  0
   36.8900  -24.7800    0.0000 C   0  0  0  0  0  0  0  0  0  0  0  0
   19.4600  -22.7500    0.0000 O   0  0  0  0  0  0  0  0  0  0  0  0
   21.8400  -21.5600    0.0000 C   0  0  0  0  0  0  0  0  0  0  0  0
   21.8400  -20.2300    0.0000 C   0  0  0  0  0  0  0  0  0  0  0  0
   22.9600  -26.1100    0.0000 O   0  0  0  0  0  0  0  0  0  0  0  0
   25.2700  -26.1100    0.0000 C   0  0  0  0  0  0  0  0  0  0  0  0
   26.4600  -26.7400    0.0000 C   0  0  0  0  0  0  0  0  0  0  0  0
   26.4600  -28.1400    0.0000 C   0  0  0  0  0  0  0  0  0  0  0  0
   27.6500  -28.7700    0.0000 C   0  0  0  0  0  0  0  0  0  0  0  0
   28.7700  -28.1400    0.0000 C   0  0  0  0  0  0  0  0  0  0  0  0
   28.7700  -26.7400    0.0000 C   0  0  0  0  0  0  0  0  0  0  0  0
   27.6500  -26.1100    0.0000 C   0  0  0  0  0  0  0  0  0  0  0  0
   26.4600  -22.7500    0.0000 O   0  0  0  0  0  0  0  0  0  0  0  0
   31.0800  -22.7500    0.0000 O   0  0  0  0  0  0  0  0  0  0  0  0
   32.2700  -27.0200    0.0000 C   0  0  0  0  0  0  0  0  0  0  0  0
   32.2700  -28.4200    0.0000 C   0  0  0  0  0  0  0  0  0  0  0  0
   34.5800  -26.1100    0.0000 O   0  0  0  0  0  0  0  0  0  0  0  0
   23.1700  -21.5600    0.0000 C   0  0  0  0  0  0  0  0  0  0  0  0
   20.4400  -21.5600    0.0000 C   0  0  0  0  0  0  0  0  0  0  0  0
   29.9600  -21.1400    0.0000 C   0  0  0  0  0  0  0  0  0  0  0  0
   31.0800  -21.7700    0.0000 C   0  0  0  0  0  0  0  0  0  0  0  0
   32.2700  -21.0700    0.0000 C   0  0  0  0  0  0  0  0  0  0  0  0
   32.2700  -19.7400    0.0000 C   0  0  0  0  0  0  0  0  0  0  0  0
   31.1500  -19.0400    0.0000 C   0  0  0  0  0  0  0  0  0  0  0  0
   29.9600  -19.7400    0.0000 C   0  0  0  0  0  0  0  0  0  0  0  0
   33.4600  -19.0400    0.0000 C   0  0  0  0  0  0  0  0  0  0  0  0
   34.6500  -19.7400    0.0000 N   0  0  0  0  0  0  0  0  0  0  0  0
   35.8400  -19.0400    0.0000 C   0  0  0  0  0  0  0  0  0  0  0  0
   35.8400  -17.7100    0.0000 C   0  0  0  0  0  0  0  0  0  0  0  0
   34.6500  -17.0100    0.0000 C   0  0  0  0  0  0  0  0  0  0  0  0
   33.4600  -17.7100    0.0000 C   0  0  0  0  0  0  0  0  0  0  0  0
   33.6000  -27.0200    0.0000 C   0  0  0  0  0  0  0  0  0  0  0  0
   30.8700  -27.0200    0.0000 C   0  0  0  0  0  0  0  0  0  0  0  0
   26.1100  -20.1600    0.0000 C   0  0  0  0  0  0  0  0  0  0  0  0
   26.1100  -21.5600    0.0000 C   0  0  0  0  0  0  0  0  0  0  0  0
   27.3000  -19.4600    0.0000 C   0  0  0  0  0  0  0  0  0  0  0  0
   24.9200  -19.4600    0.0000 N   0  0  0  0  0  0  0  0  0  0  0  0
   28.5600  -20.1600    0.0000 C   0  0  0  0  0  0  0  0  0  0  0  0
   23.7300  -20.1600    0.0000 C   0  0  0  0  0  0  0  0  0  0  0  0
   29.7500  -19.4600    0.0000 C   0  0  0  0  0  0  0  0  0  0  0  0
   22.4700  -19.4600    0.0000 C   0  0  0  0  0  0  0  0  0  0  0  0
   23.7300  -21.5600    0.0000 O   0  0  0  0  0  0  0  0  0  0  0  0
   29.7500  -18.0600    0.0000 C   0  0  0  0  0  0  0  0  0  0  0  0
   30.9400  -20.0900    0.0000 N   0  0  0  0  0  0  0  0  0  0  0  0
   21.2800  -20.1600    0.0000 N   0  0  0  0  0  0  0  0  0  0  0  0
   28.4900  -17.3600    0.0000 C   0  0  0  0  0  0  0  0  0  0  0  0
   32.1300  -19.4600    0.0000 C   0  0  0  0  0  0  0  0  0  0  0  0
   20.0900  -19.4600    0.0000 C   0  0  0  0  0  0  0  0  0  0  0  0
   28.4900  -15.9600    0.0000 C   0  0  0  0  0  0  0  0  0  0  0  0
   27.3000  -18.0600    0.0000 C   0  0  0  0  0  0  0  0  0  0  0  0
   33.3900  -20.0900    0.0000 O   0  0  0  0  0  0  0  0  0  0  0  0
   32.1300  -18.0600    0.0000 O   0  0  0  0  0  0  0  0  0  0  0  0
   18.9000  -20.1600    0.0000 N   0  0  0  0  0  0  0  0  0  0  0  0
   20.0900  -18.0600    0.0000 O   0  0  0  0  0  0  0  0  0  0  0  0
   27.3000  -15.2600    0.0000 C   0  0  0  0  0  0  0  0  0  0  0  0
   26.1100  -17.3600    0.0000 C   0  0  0  0  0  0  0  0  0  0  0  0
   34.5800  -19.3900    0.0000 C   0  0  0  0  0  0  0  0  0  0  0  0
   17.6400  -19.4600    0.0000 C   0  0  0  0  0  0  0  0  0  0  0  0
   18.9000  -21.5600    0.0000 C   0  0  0  0  0  0  0  0  0  0  0  0
   26.1100  -15.9600    0.0000 C   0  0  0  0  0  0  0  0  0  0  0  0
   35.7700  -20.0900    0.0000 C   0  0  0  0  0  0  0  0  0  0  0  0
   16.4500  -20.1600    0.0000 C   0  0  0  0  0  0  0  0  0  0  0  0
   35.7700  -21.4900    0.0000 C   0  0  0  0  0  0  0  0  0  0  0  0
   37.1000  -19.6700    0.0000 S   0  0  0  0  0  0  0  0  0  0  0  0
   15.1200  -19.8100    0.0000 N   0  0  0  0  0  0  0  0  0  0  0  0
   16.4500  -21.5600    0.0000 C   0  0  0  0  0  0  0  0  0  0  0  0
   37.1000  -21.9100    0.0000 N   0  0  0  0  0  0  0  0  0  0  0  0
   37.9400  -20.7900    0.0000 C   0  0  0  0  0  0  0  0  0  0  0  0
   14.3500  -21.0000    0.0000 C   0  0  0  0  0  0  0  0  0  0  0  0
   15.1900  -22.0500    0.0000 S   0  0  0  0  0  0  0  0  0  0  0  0
   12.9500  -21.0000    0.0000 C   0  0  0  0  0  0  0  0  0  0  0  0
   12.1800  -19.8100    0.0000 C   0  0  0  0  0  0  0  0  0  0  0  0
   12.3200  -22.1900    0.0000 C   0  0  0  0  0  0  0  0  0  0  0  0
   27.3224  -22.2600    0.0000 C   0  0  0  0  0  0  0  0  0  0  0  0
   27.3224  -23.6598    0.0000 C   0  0  0  0  0  0  0  0  0  0  0  0
   28.5349  -24.3598    0.0000 C   0  0  0  0  0  0  0  0  0  0  0  0
   29.7473  -23.6598    0.0000 C   0  0  0  0  0  0  0  0  0  0  0  0
   29.7473  -22.2600    0.0000 C   0  0  0  0  0  0  0  0  0  0  0  0
   28.5349  -21.5600    0.0000 C   0  0  0  0  0  0  0  0  0  0  0  0
   22.4528  -18.0601    0.0000 C   0  0  0  0  0  0  0  0  0  0  0  0
   21.2449  -17.3824    0.0000 C   0  0  0  0  0  0  0  0  0  0  0  0
   21.2449  -15.9824    0.0000 N   0  0  0  0  0  0  0  0  0  0  0  0
   22.4402  -15.2917    0.0000 C   0  0  0  0  0  0  0  0  0  0  0  0
   22.4397  -13.8917    0.0000 C   0  0  0  0  0  0  0  0  0  0  0  0
   21.2270  -13.1922    0.0000 O   0  0  0  0  0  0  0  0  0  0  0  0
   20.0317  -13.8828    0.0000 C   0  0  0  0  0  0  0  0  0  0  0  0
   20.0322  -15.2828    0.0000 C   0  0  0  0  0  0  0  0  0  0  0  0
 21 22  1  0
  8  9  1  0
  7 23  2  0
  9 24  1  6
  9 10  1  0
 24 25  1  0
 10 11  1  0
 11 12  1  0
  2  3  1  0
 25 26  2  0
 26 27  1  0
 27 28  2  0
 28 29  1  0
 29 30  2  0
 30 25  1  0
 12 13  1  0
 10 31  1  1
 12  1  1  0
 14 32  2  0
 13 14  1  0
 15 33  1  0
  3  4  1  0
 14 15  1  0
 33 34  1  0
 15 16  1  1
 17 35  2  0
  4  5  1  0
 16 17  1  0
 17 18  1  0
  6  5  1  1
 18 19  1  0
  4 20  2  0
  6  7  1  0
  6 21  1  0
  7  8  1  0
 21 36  1  0
 21 37  1  0
  1 38  1  0
 38 39  2  0
 39 40  1  0
 40 41  2  0
 41 42  1  0
 42 43  2  0
 38 43  1  0
 41 44  1  0
 44 45  2  0
 45 46  1  0
 46 47  2  0
 47 48  1  0
 48 49  2  0
 44 49  1  0
 33 50  1  0
 33 51  1  0
 52 53  1  0
 52 54  1  0
 52 55  2  0
 52 56  2  0
 77 78  1  0
 64 65  1  0
 63 79  2  0
 65 80  1  6
 65 66  1  0
 80 81  1  0
 66 67  1  0
 67 68  1  0
 58 59  1  0
 81 82  2  0
 82 83  1  0
 83 84  2  0
 84 85  1  0
 85 86  2  0
 86 81  1  0
 68 69  1  0
 66 87  1  1
 68 57  1  0
 70 88  2  0
 69 70  1  0
 71 89  1  0
 59 60  1  0
 70 71  1  0
 89 90  1  0
 71 72  1  1
 73 91  2  0
 60 61  1  0
 72 73  1  0
 73 74  1  0
 62 61  1  1
 74 75  1  0
 60 76  2  0
 62 63  1  0
 62 77  1  0
 63 64  1  0
 77 92  1  0
 77 93  1  0
 57 94  1  0
 94 95  2  0
 95 96  1  0
 96 97  2  0
 97 98  1  0
 98 99  2  0
 94 99  1  0
 97100  1  0
100101  2  0
101102  1  0
102103  2  0
103104  1  0
104105  2  0
100105  1  0
 89106  1  0
 89107  1  0
108109  1  6
108110  1  0
108111  1  0
110112  1  0
111113  1  0
114112  1  6
113115  1  0
113116  2  0
114117  1  0
114118  1  0
115119  1  0
117120  1  0
118121  1  0
119122  1  0
120123  2  0
120124  1  0
121125  1  0
121126  2  0
122127  1  0
122128  2  0
123129  1  0
124130  2  0
125131  1  0
127132  1  0
127133  1  0
129134  2  0
131135  1  0
132136  1  0
135137  2  0
135138  1  0
136139  1  0
136140  2  0
137141  1  0
138142  1  0
139143  2  0
140144  1  0
143145  1  0
145146  1  0
145147  1  0
130134  1  0
141142  2  0
143144  1  0
109148  1  0
148149  2  0
149150  1  0
150151  2  0
151152  1  0
152153  2  0
148153  1  0
115154  1  1
154155  1  0
155156  1  0
156157  1  0
157158  1  0
158159  1  0
159160  1  0
160161  1  0
156161  1  0
M  END
