86278357
     RDKit          2D

 35 34  0  0  1  0  0  0  0  0999 V2000
    8.9282    3.4050    0.0000 O   0  0  0  0  0  0  0  0  0  0  0  0
   10.6603    4.4050    0.0000 O   0  0  0  0  0  0  0  0  0  0  0  0
    7.1962    4.4050    0.0000 O   0  0  0  0  0  0  0  0  0  0  0  0
    8.0622   -0.0950    0.0000 O   0  0  0  0  0  0  0  0  0  0  0  0
    3.7320   -5.5950    0.0000 O   0  0  0  0  0  0  0  0  0  0  0  0
    2.8660   -4.0950    0.0000 O   0  0  0  0  0  0  0  0  0  0  0  0
   11.5263    5.9050    0.0000 O   0  0  0  0  0  0  0  0  0  0  0  0
    6.3301    5.9050    0.0000 O   0  0  0  0  0  0  0  0  0  0  0  0
   14.9904    4.9050    0.0000 O   0  0  0  0  0  0  0  0  0  0  0  0
    2.8660    4.9050    0.0000 O   0  0  0  0  0  0  0  0  0  0  0  0
    6.3301   -0.0950    0.0000 N   0  0  0  0  0  0  0  0  0  0  0  0
    5.4641   -4.5950    0.0000 N   0  0  0  0  0  0  0  0  0  0  0  0
   12.3923    4.4050    0.0000 N   0  0  0  0  0  0  0  0  0  0  0  0
    5.4641    4.4050    0.0000 N   0  0  0  0  0  0  0  0  0  0  0  0
    5.4641   -2.5950    0.0000 C   0  0  0  0  0  0  0  0  0  0  0  0
    5.4641   -1.5950    0.0000 C   0  0  0  0  0  0  0  0  0  0  0  0
    4.5981   -3.0950    0.0000 C   0  0  0  0  0  0  0  0  0  0  0  0
    6.3301   -1.0950    0.0000 C   0  0  0  0  0  0  0  0  0  0  0  0
    4.5981   -4.0950    0.0000 C   0  0  0  0  0  0  0  0  0  0  0  0
    8.0622    1.9050    0.0000 C   0  0  0  0  0  0  0  0  0  0  0  0
    7.1962    1.4050    0.0000 C   0  0  0  0  0  0  0  0  0  0  0  0
    8.9282    4.4050    0.0000 C   0  0  0  0  0  0  0  0  0  0  0  0
    8.0622    2.9050    0.0000 C   0  0  0  0  0  0  0  0  0  0  0  0
    7.1962    0.4050    0.0000 C   0  0  0  0  0  0  0  0  0  0  0  0
    9.7942    4.9050    0.0000 C   0  0  0  0  0  0  0  0  0  0  0  0
    8.0622    4.9050    0.0000 C   0  0  0  0  0  0  0  0  0  0  0  0
    3.7320   -4.5950    0.0000 C   0  0  0  0  0  0  0  0  0  0  0  0
   11.5263    4.9050    0.0000 C   0  0  0  0  0  0  0  0  0  0  0  0
    6.3301    4.9050    0.0000 C   0  0  0  0  0  0  0  0  0  0  0  0
   13.2583    4.9050    0.0000 C   0  0  0  0  0  0  0  0  0  0  0  0
    4.5981    4.9050    0.0000 C   0  0  0  0  0  0  0  0  0  0  0  0
   14.1244    4.4050    0.0000 C   0  0  0  0  0  0  0  0  0  0  0  0
    3.7320    4.4050    0.0000 C   0  0  0  0  0  0  0  0  0  0  0  0
   15.8564    4.4050    0.0000 C   0  0  0  0  0  0  0  0  0  0  0  0
    2.0000    4.4050    0.0000 C   0  0  0  0  0  0  0  0  0  0  0  0
  1 22  1  0
  1 23  1  0
  2 25  1  0
  2 28  1  0
  3 26  1  0
  3 29  1  0
  4 24  2  0
  5 27  1  0
  6 27  2  0
  7 28  2  0
  8 29  2  0
  9 32  1  0
  9 34  1  0
 10 33  1  0
 10 35  1  0
 11 18  1  0
 11 24  1  0
 19 12  1  6
 13 28  1  0
 13 30  1  0
 14 29  1  0
 14 31  1  0
 15 16  1  0
 15 17  1  0
 16 18  1  0
 17 19  1  0
 19 27  1  0
 20 21  1  0
 20 23  1  0
 21 24  1  0
 22 25  1  0
 22 26  1  0
 30 32  1  0
 31 33  1  0
M  END
