 
     RDKit          2D

 97 98  0  1  1  0  0  0  0  0999 V2000
   32.7600  -19.2500    0.0000 C   0  0  0  0  0  0  0  0  0  0  0  0
   32.7600  -20.6500    0.0000 N   0  0  0  0  0  0  0  0  0  0  0  0
   33.9500  -21.3500    0.0000 C   0  0  0  0  0  0  0  0  0  0  0  0
   35.1400  -20.6500    0.0000 C   0  0  0  0  0  0  0  0  0  0  0  0
   35.1400  -19.2500    0.0000 C   0  0  0  0  0  0  0  0  0  0  0  0
   33.9500  -18.5500    0.0000 S   0  0  0  0  0  0  0  0  0  0  0  0
   31.3600  -19.2500    0.0000 C   0  0  0  0  0  0  0  0  0  0  0  0
   31.3600  -20.6500    0.0000 C   0  0  0  0  0  0  0  0  0  0  0  0
   30.1000  -18.5500    0.0000 N   0  0  0  0  0  0  0  0  0  0  0  0
   28.9100  -19.2500    0.0000 C   0  0  0  0  0  0  0  0  0  0  0  0
   28.9100  -20.6500    0.0000 O   0  0  0  0  0  0  0  0  0  0  0  0
   30.1000  -21.3500    0.0000 O   0  0  0  0  0  0  0  0  0  0  0  0
   27.7200  -18.5500    0.0000 C   0  0  0  0  0  0  0  0  0  0  0  0
   36.4000  -21.3500    0.0000 C   0  0  0  0  0  0  0  0  0  0  0  0
   26.4600  -19.2500    0.0000 C   0  0  0  0  0  0  0  0  0  0  0  0
   25.4100  -18.4100    0.0000 C   0  0  0  0  0  0  0  0  0  0  0  0
   24.2200  -19.1800    0.0000 S   0  0  0  0  0  0  0  0  0  0  0  0
   24.6400  -20.5800    0.0000 C   0  0  0  0  0  0  0  0  0  0  0  0
   26.0400  -20.5800    0.0000 N   0  0  0  0  0  0  0  0  0  0  0  0
   27.7200  -17.1500    0.0000 N   0  0  0  0  0  0  0  0  0  0  0  0
   33.9500  -22.7500    0.0000 C   0  0  0  0  0  0  0  0  0  0  0  0
   35.1400  -23.4500    0.0000 O   0  0  0  0  0  0  0  0  0  0  0  0
   32.6900  -23.4500    0.0000 O   0  0  0  0  0  0  0  0  0  0  0  0
   23.8000  -21.7000    0.0000 N   0  0  0  0  0  0  0  0  0  0  0  0
   37.5900  -20.5800    0.0000 N   0  0  0  0  0  0  0  0  0  0  0  0
   38.7800  -21.2800    0.0000 C   0  0  0  0  0  0  0  0  0  0  0  0
   39.9700  -20.5800    0.0000 C   0  0  0  0  0  0  0  0  0  0  0  0
   39.9700  -19.1800    0.0000 C   0  0  0  0  0  0  0  0  0  0  0  0
   38.7800  -18.4800    0.0000 C   0  0  0  0  0  0  0  0  0  0  0  0
   37.5900  -19.1800    0.0000 C   0  0  0  0  0  0  0  0  0  0  0  0
   28.9100  -16.4500    0.0000 O   0  0  0  0  0  0  0  0  0  0  0  0
   28.9100  -15.0500    0.0000 C   0  0  0  0  0  0  0  0  0  0  0  0
   28.9100  -13.6500    0.0000 C   0  0  0  0  0  0  0  0  0  0  0  0
   30.3100  -15.0500    0.0000 C   0  0  0  0  0  0  0  0  0  0  0  0
   27.5100  -15.0500    0.0000 C   0  0  0  0  0  0  0  0  0  0  0  0
   31.0100  -16.2400    0.0000 O   0  0  0  0  0  0  0  0  0  0  0  0
   31.0100  -13.8600    0.0000 O   0  0  0  0  0  0  0  0  0  0  0  0
   27.7200  -22.8200    0.0000 O   0  0  0  0  0  0  0  0  0  0  0  0
   27.7200  -22.8200    0.0000 O   0  0  0  0  0  0  0  0  0  0  0  0
   27.7200  -22.8200    0.0000 O   0  0  0  0  0  0  0  0  0  0  0  0
   27.7200  -22.8200    0.0000 O   0  0  0  0  0  0  0  0  0  0  0  0
   27.7200  -22.8200    0.0000 O   0  0  0  0  0  0  0  0  0  0  0  0
   25.0600  -18.6200    0.0000 C   0  0  0  0  0  0  0  0  0  0  0  0
   25.0600  -20.0200    0.0000 N   0  0  0  0  0  0  0  0  0  0  0  0
   26.2500  -20.7200    0.0000 C   0  0  0  0  0  0  0  0  0  0  0  0
   27.4400  -20.0200    0.0000 C   0  0  0  0  0  0  0  0  0  0  0  0
   27.4400  -18.6200    0.0000 C   0  0  0  0  0  0  0  0  0  0  0  0
   26.2500  -17.9200    0.0000 S   0  0  0  0  0  0  0  0  0  0  0  0
   23.6600  -18.6200    0.0000 C   0  0  0  0  0  0  0  0  0  0  0  0
   23.6600  -20.0200    0.0000 C   0  0  0  0  0  0  0  0  0  0  0  0
   22.4000  -17.9200    0.0000 N   0  0  0  0  0  0  0  0  0  0  0  0
   21.2100  -18.6200    0.0000 C   0  0  0  0  0  0  0  0  0  0  0  0
   21.2100  -20.0200    0.0000 O   0  0  0  0  0  0  0  0  0  0  0  0
   22.4000  -20.7200    0.0000 O   0  0  0  0  0  0  0  0  0  0  0  0
   20.0200  -17.9200    0.0000 C   0  0  0  0  0  0  0  0  0  0  0  0
   28.7000  -20.7200    0.0000 C   0  0  0  0  0  0  0  0  0  0  0  0
   18.7600  -18.6200    0.0000 C   0  0  0  0  0  0  0  0  0  0  0  0
   17.7100  -17.7800    0.0000 C   0  0  0  0  0  0  0  0  0  0  0  0
   16.5200  -18.5500    0.0000 S   0  0  0  0  0  0  0  0  0  0  0  0
   16.9400  -19.9500    0.0000 C   0  0  0  0  0  0  0  0  0  0  0  0
   18.3400  -19.9500    0.0000 N   0  0  0  0  0  0  0  0  0  0  0  0
   20.0200  -16.5200    0.0000 N   0  0  0  0  0  0  0  0  0  0  0  0
   26.2500  -22.1200    0.0000 C   0  0  0  0  0  0  0  0  0  0  0  0
   27.4400  -22.8200    0.0000 O   0  0  0  0  0  0  0  0  0  0  0  0
   24.9900  -22.8200    0.0000 O   0  0  0  0  0  0  0  0  0  0  0  0
   16.1000  -21.0700    0.0000 N   0  0  0  0  0  0  0  0  0  0  0  0
   29.8900  -19.9500    0.0000 N   0  0  0  0  0  0  0  0  0  0  0  0
   31.0800  -20.6500    0.0000 C   0  0  0  0  0  0  0  0  0  0  0  0
   32.2700  -19.9500    0.0000 C   0  0  0  0  0  0  0  0  0  0  0  0
   32.2700  -18.5500    0.0000 C   0  0  0  0  0  0  0  0  0  0  0  0
   31.0800  -17.8500    0.0000 C   0  0  0  0  0  0  0  0  0  0  0  0
   29.8900  -18.5500    0.0000 C   0  0  0  0  0  0  0  0  0  0  0  0
   21.2100  -15.8200    0.0000 O   0  0  0  0  0  0  0  0  0  0  0  0
   21.2100  -14.4200    0.0000 C   0  0  0  0  0  0  0  0  0  0  0  0
   21.2100  -13.0200    0.0000 C   0  0  0  0  0  0  0  0  0  0  0  0
   22.6100  -14.4200    0.0000 C   0  0  0  0  0  0  0  0  0  0  0  0
   19.8100  -14.4200    0.0000 C   0  0  0  0  0  0  0  0  0  0  0  0
   23.3100  -15.6100    0.0000 O   0  0  0  0  0  0  0  0  0  0  0  0
   23.3100  -13.2300    0.0000 O   0  0  0  0  0  0  0  0  0  0  0  0
   17.9200  -16.4500    0.0000 N   0  0  0  0  0  0  0  0  0  0  0  0
   19.3200  -14.9100    0.0000 C   0  0  0  0  0  0  0  0  0  0  0  0
   18.8300  -17.4300    0.0000 N   0  0  0  0  0  0  0  0  0  0  0  0
   19.6700  -16.2400    0.0000 C   0  0  0  0  0  0  0  0  0  0  0  0
   17.5000  -17.7100    0.0000 C   0  0  0  0  0  0  0  0  0  0  0  0
   20.5800  -16.5200    0.0000 C   0  0  0  0  0  0  0  0  0  0  0  0
   19.8800  -17.4300    0.0000 C   0  0  0  0  0  0  0  0  0  0  0  0
   21.6300  -18.5500    0.0000 C   0  0  0  0  0  0  0  0  0  0  0  0
   16.3800  -18.5500    0.0000 O   0  0  0  0  0  0  0  0  0  0  0  0
   19.3900  -19.0400    0.0000 C   0  0  0  0  0  0  0  0  0  0  0  0
   18.0600  -19.3900    0.0000 O   0  0  0  0  0  0  0  0  0  0  0  0
   20.3700  -20.0200    0.0000 N   0  0  0  0  0  0  0  0  0  0  0  0
   17.0800  -15.3300    0.0000 O   0  0  0  0  0  0  0  0  0  0  0  0
   17.0800  -13.9300    0.0000 S   0  0  0  0  0  0  0  0  0  0  0  0
   15.6800  -13.9300    0.0000 O   0  0  0  0  0  0  0  0  0  0  0  0
   18.4800  -13.9300    0.0000 O   0  0  0  0  0  0  0  0  0  0  0  0
   17.0800  -12.5300    0.0000 O   0  0  0  0  0  0  0  0  0  0  0  0
   18.8300  -12.3900    0.0000 Na  0  0  0  0  0 15  0  0  0  0  0  0
  1  2  1  0
  2  3  1  0
  3  4  2  0
  4  5  1  0
  5  6  1  0
  1  6  1  1
  1  7  1  0
  7  8  1  0
  2  8  1  0
  7  9  1  1
  9 10  1  0
 10 11  2  0
  8 12  2  0
 10 13  1  0
  4 14  1  0
 13 15  1  0
 15 16  2  0
 16 17  1  0
 17 18  1  0
 18 19  2  0
 15 19  1  0
 13 20  2  0
  3 21  1  0
 21 22  1  0
 21 23  2  0
 18 24  1  0
 14 25  1  0
 25 26  2  0
 26 27  1  0
 27 28  2  0
 28 29  1  0
 29 30  2  0
 25 30  1  0
 20 31  1  0
 31 32  1  0
 32 33  1  0
 32 34  1  0
 32 35  1  0
 34 36  1  0
 34 37  2  0
 43 44  1  0
 44 45  1  0
 45 46  2  0
 46 47  1  0
 47 48  1  0
 43 48  1  1
 43 49  1  0
 49 50  1  0
 44 50  1  0
 49 51  1  1
 51 52  1  0
 52 53  2  0
 50 54  2  0
 52 55  1  0
 46 56  1  0
 55 57  1  0
 57 58  2  0
 58 59  1  0
 59 60  1  0
 60 61  2  0
 57 61  1  0
 55 62  2  0
 45 63  1  0
 63 64  1  0
 63 65  2  0
 60 66  1  0
 56 67  1  0
 67 68  2  0
 68 69  1  0
 69 70  2  0
 70 71  1  0
 71 72  2  0
 67 72  1  0
 62 73  1  0
 73 74  1  0
 74 75  1  0
 74 76  1  0
 74 77  1  0
 76 78  1  0
 76 79  2  0
 81 82  1  0
 81 83  1  0
 80 83  1  0
 80 84  1  0
 84 82  1  0
 83 85  1  0
 82 86  1  0
 86 87  1  0
 85 87  1  0
 84 88  2  0
 86 89  1  1
 89 90  2  0
 89 91  1  0
 80 92  1  0
 92 93  1  0
 93 94  2  0
 93 95  2  0
 93 96  1  0
M  CHG  6  22  -1  25   1  64  -1  67   1  96  -1  97   1
M  STY  1   1 MUL
M  SLB  1   1   1
M  SCN  1   1 HT 
M  SAL   1  5  38  39  40  41  42
M  SPA   1  1  38
M  SDI   1  4   25.6200  -23.4500   25.6200  -22.0500
M  SDI   1  4   28.2100  -22.0500   28.2100  -23.4500
M  SMT   1 5
M  END
