 
     RDKit          2D

 50 50  0  0  1  0  0  0  0  0999 V2000
   15.1431  -17.5925    0.0000 C   0  0  0  0  0  0  0  0  0  0  0  0
   15.1431  -18.9937    0.0000 C   0  0  0  0  0  0  0  0  0  0  0  0
   16.3342  -19.6944    0.0000 C   0  0  0  0  0  0  0  0  0  0  0  0
   17.5953  -18.9937    0.0000 C   0  0  0  0  0  0  0  0  0  0  0  0
   17.5953  -17.5925    0.0000 C   0  0  0  0  0  0  0  0  0  0  0  0
   16.3342  -16.8919    0.0000 C   0  0  0  0  0  0  0  0  0  0  0  0
   18.7864  -16.8919    0.0000 C   0  0  0  0  0  0  0  0  0  0  0  0
   20.0475  -17.5925    0.0000 C   0  0  0  0  0  0  0  0  0  0  0  0
   20.0475  -18.9937    0.0000 C   0  0  0  0  0  0  0  0  0  0  0  0
   21.2385  -19.6944    0.0000 C   0  0  0  0  0  0  0  0  0  0  0  0
   22.4296  -18.9937    0.0000 C   0  0  0  0  0  0  0  0  0  0  0  0
   22.4296  -17.5925    0.0000 C   0  0  0  0  0  0  0  0  0  0  0  0
   21.2385  -16.8919    0.0000 C   0  0  0  0  0  0  0  0  0  0  0  0
   18.7864  -19.6944    0.0000 Cl  0  0  0  0  0  0  0  0  0  0  0  0
   23.6207  -19.6944    0.0000 O   0  0  0  0  0  0  0  0  0  0  0  0
   24.8117  -18.9937    0.0000 C   0  0  0  0  0  0  0  0  0  0  0  0
   13.9521  -16.8919    0.0000 C   0  0  0  0  0  0  0  0  0  0  0  0
   13.9521  -15.4906    0.0000 O   0  0  0  0  0  0  0  0  0  0  0  0
   12.6909  -14.7900    0.0000 C   0  0  0  0  0  0  0  0  0  0  0  0
   11.4999  -15.4906    0.0000 C   0  0  0  0  0  0  0  0  0  0  0  0
   11.4999  -16.8919    0.0000 C   0  0  0  0  0  0  0  0  0  0  0  0
   12.6909  -17.5925    0.0000 C   0  0  0  0  0  0  0  0  0  0  0  0
   12.6909  -18.9937    0.0000 O   0  0  0  0  0  0  0  0  0  0  0  0
   10.3088  -14.7900    0.0000 O   0  0  0  0  0  0  0  0  0  0  0  0
   10.3088  -17.5925    0.0000 O   0  0  0  0  0  0  0  0  0  0  0  0
   12.6909  -13.3888    0.0000 C   0  0  0  0  0  0  0  0  0  0  0  0
   13.9521  -12.6881    0.0000 O   0  0  0  0  0  0  0  0  0  0  0  0
   26.0964  -19.5532    0.0000 C   0  0  0  0  0  0  0  0  0  0  0  0
   27.0256  -18.5043    0.0000 O   0  0  0  0  0  0  0  0  0  0  0  0
   26.3151  -17.2965    0.0000 C   0  0  0  0  0  0  0  0  0  0  0  0
   24.9468  -17.5990    0.0000 C   0  0  0  0  0  0  0  0  0  0  0  0
   25.2991  -19.3605    0.0000 C   0  0  0  0  0  0  0  0  0  0  0  0
   24.0935  -18.6673    0.0000 N   0  0  0  0  0  0  0  0  0  0  0  0
   26.5163  -18.6673    0.0000 N   0  0  0  0  0  0  0  0  0  0  0  0
   25.2991  -20.7640    0.0000 N   0  0  0  0  0  0  0  0  0  0  0  0
   22.8764  -19.3605    0.0000 C   0  0  0  0  0  0  0  0  0  0  0  0
   27.7278  -19.3605    0.0000 C   0  0  0  0  0  0  0  0  0  0  0  0
   26.5163  -17.2579    0.0000 C   0  0  0  0  0  0  0  0  0  0  0  0
   21.6649  -18.6673    0.0000 N   0  0  0  0  0  0  0  0  0  0  0  0
   22.8764  -20.7640    0.0000 N   0  0  0  0  0  0  0  0  0  0  0  0
   31.1135  -18.2132    0.0000 Cl  0  0  0  0  0  0  0  0  0  0  0  0
   26.2960  -19.4016    0.0000 C   0  0  0  0  0  0  0  0  0  0  0  0
   25.0898  -18.7081    0.0000 N   0  0  0  0  0  0  0  0  0  0  0  0
   27.5139  -18.7081    0.0000 N   0  0  0  0  0  0  0  0  0  0  0  0
   26.2960  -20.8058    0.0000 N   0  0  0  0  0  0  0  0  0  0  0  0
   23.8721  -19.4016    0.0000 C   0  0  0  0  0  0  0  0  0  0  0  0
   28.7260  -19.4016    0.0000 C   0  0  0  0  0  0  0  0  0  0  0  0
   27.5139  -17.3038    0.0000 C   0  0  0  0  0  0  0  0  0  0  0  0
   22.6600  -18.7081    0.0000 N   0  0  0  0  0  0  0  0  0  0  0  0
   23.8721  -20.8058    0.0000 N   0  0  0  0  0  0  0  0  0  0  0  0
  1  2  2  0
  2  3  1  0
  3  4  2  0
  4  5  1  0
  5  6  2  0
  1  6  1  0
  5  7  1  0
  7  8  1  0
  8  9  2  0
  9 10  1  0
 10 11  2  0
 11 12  1  0
 12 13  2  0
  8 13  1  0
  4 14  1  0
 11 15  1  0
 16 15  1  1
 17  1  1  1
 17 18  1  0
 18 19  1  0
 19 20  1  0
 21 20  1  0
 21 22  1  0
 22 17  1  0
 22 23  1  6
 20 24  1  6
 21 25  1  1
 19 26  1  1
 26 27  1  0
 16 28  1  0
 28 29  1  0
 29 30  1  0
 30 31  1  0
 16 31  1  0
 32 33  1  0
 32 34  1  0
 32 35  2  0
 33 36  1  0
 34 37  1  0
 34 38  1  0
 36 39  1  0
 36 40  2  0
 42 43  1  0
 42 44  1  0
 42 45  2  0
 43 46  1  0
 44 47  1  0
 44 48  1  0
 46 49  1  0
 46 50  2  0
M  END
