 
     RDKit          2D

128139  0  0  1  0  0  0  0  0999 V2000
   37.1700  -16.1000    0.0000 Cl  0  0  0  0  0  0  0  0  0  0  0  0
   29.4000  -17.5000    0.0000 C   0  0  0  0  0  0  0  0  0  0  0  0
   29.4000  -16.1700    0.0000 C   0  0  0  0  0  0  0  0  0  0  0  0
   30.5900  -18.2000    0.0000 C   0  0  0  0  0  0  0  0  0  0  0  0
   28.2800  -18.1300    0.0000 C   0  0  0  0  0  0  0  0  0  0  0  0
   30.5900  -16.8700    0.0000 C   0  0  0  0  0  0  0  0  0  0  0  0
   28.2800  -15.5400    0.0000 C   0  0  0  0  0  0  0  0  0  0  0  0
   30.5900  -15.5400    0.0000 C   0  0  0  0  0  0  0  0  0  0  0  0
   31.7100  -17.5000    0.0000 C   0  0  0  0  0  0  0  0  0  0  0  0
   30.5900  -19.4600    0.0000 C   0  0  0  0  0  0  0  0  0  0  0  0
   27.0200  -16.8000    0.0000 O   0  0  0  0  0  0  0  0  0  0  0  0
   28.2800  -19.4600    0.0000 C   0  0  0  0  0  0  0  0  0  0  0  0
   32.8300  -16.8700    0.0000 C   0  0  0  0  0  0  0  0  0  0  0  0
   28.2800  -14.2100    0.0000 C   0  0  0  0  0  0  0  0  0  0  0  0
   31.7100  -16.2400    0.0000 C   0  0  0  0  0  0  0  0  0  0  0  0
   30.5900  -14.2100    0.0000 C   0  0  0  0  0  0  0  0  0  0  0  0
   32.8300  -18.2000    0.0000 N   0  0  0  0  0  0  0  0  0  0  0  0
   29.4000  -20.1600    0.0000 C   0  0  0  0  0  0  0  0  0  0  0  0
   29.4700  -13.5800    0.0000 C   0  0  0  0  0  0  0  0  0  0  0  0
   27.2300  -13.5800    0.0000 O   0  0  0  0  0  0  0  0  0  0  0  0
   31.8500  -19.1100    0.0000 O   0  0  0  0  0  0  0  0  0  0  0  0
   34.2300  -18.2000    0.0000 C   0  0  0  0  0  0  0  0  0  0  0  0
   34.9300  -19.3900    0.0000 C   0  0  0  0  0  0  0  0  0  0  0  0
   34.9300  -20.7900    0.0000 C   0  0  0  0  0  0  0  0  0  0  0  0
   36.1200  -20.0900    0.0000 C   0  0  0  0  0  0  0  0  0  0  0  0
   27.0900  -20.1600    0.0000 O   0  0  0  0  0  0  0  0  0  0  0  0
   46.6394  -16.7446    0.0000 C   0  0  0  0  0  0  0  0  0  0  0  0
   46.6394  -15.4129    0.0000 C   0  0  0  0  0  0  0  0  0  0  0  0
   47.8309  -17.4454    0.0000 C   0  0  0  0  0  0  0  0  0  0  0  0
   45.5180  -17.3753    0.0000 C   0  0  0  0  0  0  0  0  0  0  0  0
   47.8309  -16.1138    0.0000 C   0  0  0  0  0  0  0  0  0  0  0  0
   45.5180  -14.7821    0.0000 C   0  0  0  0  0  0  0  0  0  0  0  0
   47.8309  -14.7821    0.0000 C   0  0  0  0  0  0  0  0  0  0  0  0
   48.9523  -16.7446    0.0000 C   0  0  0  0  0  0  0  0  0  0  0  0
   47.8309  -18.7070    0.0000 C   0  0  0  0  0  0  0  0  0  0  0  0
   44.2564  -16.0437    0.0000 O   0  0  0  0  0  0  0  0  0  0  0  0
   45.5180  -18.7070    0.0000 C   0  0  0  0  0  0  0  0  0  0  0  0
   50.0737  -16.1138    0.0000 C   0  0  0  0  0  0  0  0  0  0  0  0
   45.5180  -13.4504    0.0000 C   0  0  0  0  0  0  0  0  0  0  0  0
   48.9523  -15.4830    0.0000 C   0  0  0  0  0  0  0  0  0  0  0  0
   47.8309  -13.4504    0.0000 C   0  0  0  0  0  0  0  0  0  0  0  0
   50.0737  -17.4454    0.0000 N   0  0  0  0  0  0  0  0  0  0  0  0
   46.6394  -19.4079    0.0000 C   0  0  0  0  0  0  0  0  0  0  0  0
   46.7095  -12.8196    0.0000 C   0  0  0  0  0  0  0  0  0  0  0  0
   44.4667  -12.8196    0.0000 O   0  0  0  0  0  0  0  0  0  0  0  0
   49.0924  -18.3566    0.0000 O   0  0  0  0  0  0  0  0  0  0  0  0
   51.4754  -17.4454    0.0000 C   0  0  0  0  0  0  0  0  0  0  0  0
   52.1763  -18.6369    0.0000 C   0  0  0  0  0  0  0  0  0  0  0  0
   52.1241  -20.0403    0.0000 C   0  0  0  0  0  0  0  0  0  0  0  0
   53.3435  -19.3117    0.0000 C   0  0  0  0  0  0  0  0  0  0  0  0
   44.2872  -19.3893    0.0000 O   0  0  0  0  0  0  0  0  0  0  0  0
   20.5488  -23.1468    0.0000 C   0  0  0  0  0  0  0  0  0  0  0  0
   20.5488  -21.8205    0.0000 C   0  0  0  0  0  0  0  0  0  0  0  0
   21.7355  -23.8449    0.0000 C   0  0  0  0  0  0  0  0  0  0  0  0
   19.4318  -23.7751    0.0000 C   0  0  0  0  0  0  0  0  0  0  0  0
   21.7355  -22.5185    0.0000 C   0  0  0  0  0  0  0  0  0  0  0  0
   19.4318  -21.2620    0.0000 C   0  0  0  0  0  0  0  0  0  0  0  0
   21.7355  -21.2620    0.0000 C   0  0  0  0  0  0  0  0  0  0  0  0
   22.8524  -23.1468    0.0000 C   0  0  0  0  0  0  0  0  0  0  0  0
   21.7355  -25.1014    0.0000 C   0  0  0  0  0  0  0  0  0  0  0  0
   18.1055  -22.4487    0.0000 O   0  0  0  0  0  0  0  0  0  0  0  0
   19.4318  -25.1014    0.0000 C   0  0  0  0  0  0  0  0  0  0  0  0
   23.9694  -22.5185    0.0000 C   0  0  0  0  0  0  0  0  0  0  0  0
   19.4318  -19.9356    0.0000 C   0  0  0  0  0  0  0  0  0  0  0  0
   22.8524  -21.8903    0.0000 C   0  0  0  0  0  0  0  0  0  0  0  0
   21.7355  -19.9356    0.0000 C   0  0  0  0  0  0  0  0  0  0  0  0
   23.9694  -23.8449    0.0000 N   0  0  0  0  0  0  0  0  0  0  0  0
   20.5488  -25.7995    0.0000 C   0  0  0  0  0  0  0  0  0  0  0  0
   18.3149  -25.7995    0.0000 O   0  0  0  0  0  0  0  0  0  0  0  0
   20.6186  -19.3074    0.0000 C   0  0  0  0  0  0  0  0  0  0  0  0
   18.3149  -19.3074    0.0000 O   0  0  0  0  0  0  0  0  0  0  0  0
   22.9921  -24.8222    0.0000 O   0  0  0  0  0  0  0  0  0  0  0  0
   25.3655  -23.8449    0.0000 C   0  0  0  0  0  0  0  0  0  0  0  0
   26.0636  -25.1014    0.0000 C   0  0  0  0  0  0  0  0  0  0  0  0
   26.0611  -26.4783    0.0000 C   0  0  0  0  0  0  0  0  0  0  0  0
   27.2658  -25.7726    0.0000 C   0  0  0  0  0  0  0  0  0  0  0  0
   23.9694  -25.2411    0.0000 C   0  0  0  0  0  0  0  0  0  0  0  0
   25.9240  -21.6808    0.0000 Br  0  0  0  0  0  0  0  0  0  0  0  0
   15.4700  -16.1700    0.0000 C   0  0  0  0  0  0  0  0  0  0  0  0
   16.7300  -15.4700    0.0000 C   0  0  0  0  0  0  0  0  0  0  0  0
   14.2800  -15.4700    0.0000 C   0  0  0  0  0  0  0  0  0  0  0  0
   15.4700  -17.5700    0.0000 C   0  0  0  0  0  0  0  0  0  0  0  0
   17.9200  -16.1700    0.0000 C   0  0  0  0  0  0  0  0  0  0  0  0
   16.7300  -14.0700    0.0000 O   0  0  0  0  0  0  0  0  0  0  0  0
   13.0900  -16.1700    0.0000 C   0  0  0  0  0  0  0  0  0  0  0  0
   14.2800  -18.2700    0.0000 C   0  0  0  0  0  0  0  0  0  0  0  0
   19.1100  -15.4700    0.0000 N   0  0  0  0  0  0  0  0  0  0  0  0
   17.9200  -17.5700    0.0000 C   0  0  0  0  0  0  0  0  0  0  0  0
   13.0900  -17.5700    0.0000 C   0  0  0  0  0  0  0  0  0  0  0  0
   11.9000  -15.4700    0.0000 Cl  0  0  0  0  0  0  0  0  0  0  0  0
   20.3700  -16.1700    0.0000 C   0  0  0  0  0  0  0  0  0  0  0  0
   21.5600  -15.4700    0.0000 C   0  0  0  0  0  0  0  0  0  0  0  0
   20.3700  -17.5700    0.0000 C   0  0  0  0  0  0  0  0  0  0  0  0
   21.5600  -16.9400    0.0000 C   0  0  0  0  0  0  0  0  0  0  0  0
   25.3400  -15.4700    0.0000 Cl  0  0  0  0  0  0  0  0  0  0  0  0
   17.4300  -16.1700    0.0000 C   0  0  0  0  0  0  0  0  0  0  0  0
   18.6200  -15.4700    0.0000 C   0  0  0  0  0  0  0  0  0  0  0  0
   16.1700  -15.4700    0.0000 C   0  0  0  0  0  0  0  0  0  0  0  0
   17.4300  -17.5700    0.0000 C   0  0  0  0  0  0  0  0  0  0  0  0
   19.8100  -16.1700    0.0000 C   0  0  0  0  0  0  0  0  0  0  0  0
   18.6200  -14.0700    0.0000 O   0  0  0  0  0  0  0  0  0  0  0  0
   14.9800  -16.1700    0.0000 C   0  0  0  0  0  0  0  0  0  0  0  0
   16.1700  -18.2700    0.0000 C   0  0  0  0  0  0  0  0  0  0  0  0
   21.0000  -15.4700    0.0000 N   0  0  0  0  0  0  0  0  0  0  0  0
   19.8100  -17.5700    0.0000 C   0  0  0  0  0  0  0  0  0  0  0  0
   14.9800  -17.5700    0.0000 C   0  0  0  0  0  0  0  0  0  0  0  0
   13.7900  -15.4700    0.0000 Cl  0  0  0  0  0  0  0  0  0  0  0  0
   22.2600  -16.1700    0.0000 C   0  0  0  0  0  0  0  0  0  0  0  0
   23.4500  -15.4700    0.0000 C   0  0  0  0  0  0  0  0  0  0  0  0
   22.2600  -17.5700    0.0000 C   0  0  0  0  0  0  0  0  0  0  0  0
   23.4500  -16.9400    0.0000 C   0  0  0  0  0  0  0  0  0  0  0  0
   16.3800  -16.1700    0.0000 C   0  0  0  0  0  0  0  0  0  0  0  0
   16.3800  -17.5700    0.0000 C   0  0  0  0  0  0  0  0  0  0  0  0
   15.1200  -18.2700    0.0000 C   0  0  0  0  0  0  0  0  0  0  0  0
   13.9300  -17.5700    0.0000 C   0  0  0  0  0  0  0  0  0  0  0  0
   13.9300  -16.1700    0.0000 C   0  0  0  0  0  0  0  0  0  0  0  0
   15.1200  -15.4700    0.0000 C   0  0  0  0  0  0  0  0  0  0  0  0
   12.6700  -15.4700    0.0000 Cl  0  0  0  0  0  0  0  0  0  0  0  0
   17.5700  -15.4700    0.0000 C   0  0  0  0  0  0  0  0  0  0  0  0
   18.7600  -16.1700    0.0000 C   0  0  0  0  0  0  0  0  0  0  0  0
   17.5700  -14.0700    0.0000 O   0  0  0  0  0  0  0  0  0  0  0  0
   19.9500  -15.4700    0.0000 N   0  0  0  0  0  0  0  0  0  0  0  0
   18.7600  -17.5700    0.0000 C   0  0  0  0  0  0  0  0  0  0  0  0
   21.1400  -16.1700    0.0000 C   0  0  0  0  0  0  0  0  0  0  0  0
   22.3300  -15.4700    0.0000 C   0  0  0  0  0  0  0  0  0  0  0  0
   21.1400  -17.5700    0.0000 C   0  0  0  0  0  0  0  0  0  0  0  0
   22.4000  -16.8000    0.0000 C   0  0  0  0  0  0  0  0  0  0  0  0
   25.9700  -16.8700    0.0000 Br  0  0  0  0  0  0  0  0  0  0  0  0
  2  3  1  0
  2  4  1  0
  2  5  1  0
  2  6  1  1
  3  7  2  0
  3  8  1  0
  4  9  1  0
  4 10  1  0
  5 11  1  6
  5 12  1  0
  6 13  1  0
  7 14  1  0
  8 15  1  0
  8 16  2  0
  9 17  1  0
 10 18  1  0
 14 19  2  0
 14 20  1  0
  7 11  1  0
  9 15  1  1
 12 18  1  0
 13 17  1  0
 16 19  1  0
  4 21  1  1
 17 22  1  0
 22 23  1  0
 23 24  1  0
 23 25  1  0
 24 25  1  0
 12 26  2  0
 27 28  1  0
 27 29  1  0
 27 30  1  0
 27 31  1  1
 28 32  2  0
 28 33  1  0
 29 34  1  0
 29 35  1  0
 30 36  1  6
 30 37  1  0
 31 38  1  0
 32 39  1  0
 33 40  1  0
 33 41  2  0
 34 42  1  0
 35 43  1  0
 39 44  2  0
 39 45  1  0
 32 36  1  0
 34 40  1  1
 37 43  1  0
 38 42  1  0
 41 44  1  0
 29 46  1  1
 42 47  1  0
 47 48  1  0
 48 49  1  0
 48 50  1  0
 49 50  1  0
 37 51  2  0
 52 53  1  0
 52 54  1  0
 52 55  1  0
 52 56  1  1
 53 57  2  0
 53 58  1  0
 54 59  1  0
 54 60  1  0
 55 61  1  6
 55 62  1  0
 56 63  1  0
 57 64  1  0
 58 65  1  0
 58 66  2  0
 59 67  1  0
 60 68  1  0
 62 69  2  0
 64 70  2  0
 64 71  1  0
 57 61  1  0
 59 65  1  1
 62 68  1  0
 63 67  1  0
 66 70  1  0
 54 72  1  1
 67 73  1  0
 73 74  1  0
 75 76  1  0
 76 74  1  0
 74 75  1  0
 67 77  1  0
 79 80  1  0
 79 81  2  0
 79 82  1  0
 80 83  1  0
 80 84  2  0
 81 85  1  0
 82 86  2  0
 83 87  1  0
 83 88  1  0
 85 89  2  0
 85 90  1  0
 87 91  1  0
 91 92  1  0
 91 93  1  0
 91 94  1  0
 86 89  1  0
 96 97  1  0
 96 98  2  0
 96 99  1  0
 97100  1  0
 97101  2  0
 98102  1  0
 99103  2  0
100104  1  0
100105  1  0
102106  2  0
102107  1  0
104108  1  0
108109  1  0
108110  1  0
108111  1  0
103106  1  0
112113  2  0
113114  1  0
114115  2  0
115116  1  0
116117  2  0
112117  1  0
116118  1  0
112119  1  0
119120  1  0
119121  2  0
120122  1  0
120123  1  0
122124  1  0
124125  1  0
124126  1  0
124127  1  0
M  CHG  2  67   1  78  -1
M  END
