 
     RDKit          2D

366387  0  2  1  0  0  0  0  0999 V2000
   19.7400  -14.4900    0.0000 C   0  0  0  0  0  0  0  0  0  0  0  0
   19.7400  -15.8900    0.0000 C   0  0  0  0  0  0  0  0  0  0  0  0
   20.9300  -16.5900    0.0000 C   0  0  0  0  0  0  0  0  0  0  0  0
   22.1900  -15.8900    0.0000 C   0  0  0  0  0  0  0  0  0  0  0  0
   22.1900  -14.4900    0.0000 C   0  0  0  0  0  0  0  0  0  0  0  0
   20.9300  -13.8600    0.0000 C   0  0  0  0  0  0  0  0  0  0  0  0
   20.9300  -17.9900    0.0000 N   0  0  0  0  0  0  0  0  0  0  0  0
   20.9300  -12.4600    0.0000 C   0  0  0  0  0  0  0  0  0  0  0  0
   20.9300  -11.0600    0.0000 C   0  0  0  0  0  0  0  0  0  0  0  0
   19.5300  -12.4600    0.0000 C   0  0  0  0  0  0  0  0  0  0  0  0
   22.3300  -12.4600    0.0000 C   0  0  0  0  0  0  0  0  0  0  0  0
   19.8100  -18.8300    0.0000 C   0  0  0  0  0  0  0  0  0  0  0  0
   20.2300  -20.1600    0.0000 C   0  0  0  0  0  0  0  0  0  0  0  0
   21.6300  -20.1600    0.0000 C   0  0  0  0  0  0  0  0  0  0  0  0
   22.1200  -18.8300    0.0000 C   0  0  0  0  0  0  0  0  0  0  0  0
   23.3100  -16.7300    0.0000 C   0  0  0  0  0  0  0  0  0  0  0  0
   23.3100  -18.1300    0.0000 C   0  0  0  0  0  0  0  0  0  0  0  0
   24.5000  -18.8300    0.0000 C   0  0  0  0  0  0  0  0  0  0  0  0
   25.7600  -18.1300    0.0000 C   0  0  0  0  0  0  0  0  0  0  0  0
   25.7600  -16.7300    0.0000 C   0  0  0  0  0  0  0  0  0  0  0  0
   24.5000  -16.0300    0.0000 C   0  0  0  0  0  0  0  0  0  0  0  0
   16.2400  -16.7300    0.0000 C   0  0  0  0  0  0  0  0  0  0  0  0
   16.2400  -18.1300    0.0000 C   0  0  0  0  0  0  0  0  0  0  0  0
   17.4300  -18.8300    0.0000 C   0  0  0  0  0  0  0  0  0  0  0  0
   18.6900  -18.1300    0.0000 C   0  0  0  0  0  0  0  0  0  0  0  0
   18.6900  -16.7300    0.0000 C   0  0  0  0  0  0  0  0  0  0  0  0
   17.4300  -16.0300    0.0000 C   0  0  0  0  0  0  0  0  0  0  0  0
   15.0500  -16.0300    0.0000 N   0  0  0  0  0  0  0  0  0  0  0  0
   13.8600  -16.7300    0.0000 C   0  0  0  0  0  0  0  0  0  0  0  0
   12.6700  -16.0300    0.0000 C   0  0  0  0  0  0  0  0  0  0  0  0
   13.8600  -18.1300    0.0000 O   0  0  0  0  0  0  0  0  0  0  0  0
   11.4800  -16.8700    0.0000 N   0  0  0  0  0  0  0  0  0  0  0  0
   10.3600  -16.0300    0.0000 C   0  0  0  0  0  0  0  0  0  0  0  0
   10.7800  -14.7000    0.0000 C   0  0  0  0  0  0  0  0  0  0  0  0
   12.1800  -14.7000    0.0000 C   0  0  0  0  0  0  0  0  0  0  0  0
   11.4800  -18.2700    0.0000 C   0  0  0  0  0  0  0  0  0  0  0  0
   10.2200  -18.9700    0.0000 C   0  0  0  0  0  0  0  0  0  0  0  0
   12.6700  -18.9700    0.0000 O   0  0  0  0  0  0  0  0  0  0  0  0
    9.0300  -18.2000    0.0000 C   0  0  0  0  0  0  0  0  0  0  0  0
    7.8400  -18.9000    0.0000 C   0  0  0  0  0  0  0  0  0  0  0  0
    9.0300  -16.8000    0.0000 C   0  0  0  0  0  0  0  0  0  0  0  0
   10.2200  -20.3700    0.0000 N   0  0  0  0  0  0  0  0  0  0  0  0
    9.0300  -21.0700    0.0000 C   0  0  0  0  0  0  0  0  0  0  0  0
    7.8400  -20.3700    0.0000 O   0  0  0  0  0  0  0  0  0  0  0  0
    6.5800  -21.0700    0.0000 C   0  0  0  0  0  0  0  0  0  0  0  0
    9.0300  -22.4700    0.0000 O   0  0  0  0  0  0  0  0  0  0  0  0
   26.9500  -16.0300    0.0000 N   0  0  0  0  0  0  0  0  0  0  0  0
   28.1400  -16.7300    0.0000 C   0  0  0  0  0  0  0  0  0  0  0  0
   29.3300  -16.0300    0.0000 C   0  0  0  0  0  0  0  0  0  0  0  0
   28.1400  -18.1300    0.0000 O   0  0  0  0  0  0  0  0  0  0  0  0
   30.5200  -16.8700    0.0000 N   0  0  0  0  0  0  0  0  0  0  0  0
   31.6400  -16.0300    0.0000 C   0  0  0  0  0  0  0  0  0  0  0  0
   31.2200  -14.7000    0.0000 C   0  0  0  0  0  0  0  0  0  0  0  0
   29.8200  -14.7000    0.0000 C   0  0  0  0  0  0  0  0  0  0  0  0
   30.5200  -18.2700    0.0000 C   0  0  0  0  0  0  0  0  0  0  0  0
   31.7800  -18.9700    0.0000 C   0  0  0  0  0  0  0  0  0  0  0  0
   29.3300  -18.9700    0.0000 O   0  0  0  0  0  0  0  0  0  0  0  0
   32.9700  -18.2000    0.0000 C   0  0  0  0  0  0  0  0  0  0  0  0
   34.1600  -18.9000    0.0000 C   0  0  0  0  0  0  0  0  0  0  0  0
   32.9700  -16.8000    0.0000 C   0  0  0  0  0  0  0  0  0  0  0  0
   31.7800  -20.3700    0.0000 N   0  0  0  0  0  0  0  0  0  0  0  0
   32.9700  -21.0700    0.0000 C   0  0  0  0  0  0  0  0  0  0  0  0
   34.1600  -20.3700    0.0000 O   0  0  0  0  0  0  0  0  0  0  0  0
   35.4200  -21.0700    0.0000 C   0  0  0  0  0  0  0  0  0  0  0  0
   32.9700  -22.4700    0.0000 O   0  0  0  0  0  0  0  0  0  0  0  0
   42.6300  -17.4300    0.0000 O   0  0  0  0  0  0  0  0  0  0  0  0
   19.7400  -14.4900    0.0000 C   0  0  0  0  0  0  0  0  0  0  0  0
   19.7400  -15.8900    0.0000 C   0  0  0  0  0  0  0  0  0  0  0  0
   20.9300  -16.5900    0.0000 C   0  0  0  0  0  0  0  0  0  0  0  0
   22.1900  -15.8900    0.0000 C   0  0  0  0  0  0  0  0  0  0  0  0
   22.1900  -14.4900    0.0000 C   0  0  0  0  0  0  0  0  0  0  0  0
   20.9300  -13.8600    0.0000 C   0  0  0  0  0  0  0  0  0  0  0  0
   20.9300  -12.4600    0.0000 C   0  0  0  0  0  0  0  0  0  0  0  0
   20.9300  -11.0600    0.0000 C   0  0  0  0  0  0  0  0  0  0  0  0
   19.5300  -12.4600    0.0000 C   0  0  0  0  0  0  0  0  0  0  0  0
   22.3300  -12.4600    0.0000 C   0  0  0  0  0  0  0  0  0  0  0  0
   20.9300  -17.9900    0.0000 N   0  0  0  0  0  0  0  0  0  0  0  0
   19.8100  -18.8300    0.0000 C   0  0  0  0  0  0  0  0  0  0  0  0
   20.2300  -20.1600    0.0000 C   0  0  0  0  0  0  0  0  0  0  0  0
   21.6300  -20.1600    0.0000 C   0  0  0  0  0  0  0  0  0  0  0  0
   22.1200  -18.8300    0.0000 C   0  0  0  0  0  0  0  0  0  0  0  0
   23.3100  -18.1300    0.0000 C   0  0  0  0  0  0  0  0  0  0  0  0
   23.3100  -16.7300    0.0000 C   0  0  0  0  0  0  0  0  0  0  0  0
   24.5000  -16.0300    0.0000 C   0  0  0  0  0  0  0  0  0  0  0  0
   25.7600  -16.7300    0.0000 C   0  0  0  0  0  0  0  0  0  0  0  0
   25.7600  -18.1300    0.0000 C   0  0  0  0  0  0  0  0  0  0  0  0
   24.5000  -18.8300    0.0000 C   0  0  0  0  0  0  0  0  0  0  0  0
   26.9500  -16.0300    0.0000 N   0  0  0  0  0  0  0  0  0  0  0  0
   28.1400  -16.7300    0.0000 C   0  0  0  0  0  0  0  0  0  0  0  0
   29.3300  -16.0300    0.0000 C   0  0  0  0  0  0  0  0  0  0  0  0
   29.8200  -14.7000    0.0000 C   0  0  0  0  0  0  0  0  0  0  0  0
   31.2200  -14.7000    0.0000 C   0  0  0  0  0  0  0  0  0  0  0  0
   31.6400  -16.0300    0.0000 C   0  0  0  0  0  0  0  0  0  0  0  0
   30.5200  -16.8700    0.0000 N   0  0  0  0  0  0  0  0  0  0  0  0
   30.5200  -18.2700    0.0000 C   0  0  0  0  0  0  0  0  0  0  0  0
   31.7800  -18.9700    0.0000 C   0  0  0  0  0  0  0  0  0  0  0  0
   32.9700  -18.2000    0.0000 C   0  0  0  0  0  0  0  0  0  0  0  0
   34.1600  -18.9000    0.0000 C   0  0  0  0  0  0  0  0  0  0  0  0
   32.9700  -16.8000    0.0000 C   0  0  0  0  0  0  0  0  0  0  0  0
   31.7800  -20.3700    0.0000 N   0  0  0  0  0  0  0  0  0  0  0  0
   32.9700  -21.0700    0.0000 C   0  0  0  0  0  0  0  0  0  0  0  0
   34.1600  -20.3700    0.0000 O   0  0  0  0  0  0  0  0  0  0  0  0
   35.4200  -21.0700    0.0000 C   0  0  0  0  0  0  0  0  0  0  0  0
   32.9700  -22.4700    0.0000 O   0  0  0  0  0  0  0  0  0  0  0  0
   29.3300  -18.9700    0.0000 O   0  0  0  0  0  0  0  0  0  0  0  0
   28.1400  -18.1300    0.0000 O   0  0  0  0  0  0  0  0  0  0  0  0
   18.6900  -18.1300    0.0000 C   0  0  0  0  0  0  0  0  0  0  0  0
   17.4300  -18.8300    0.0000 C   0  0  0  0  0  0  0  0  0  0  0  0
   16.2400  -18.1300    0.0000 C   0  0  0  0  0  0  0  0  0  0  0  0
   16.2400  -16.7300    0.0000 C   0  0  0  0  0  0  0  0  0  0  0  0
   17.4300  -16.0300    0.0000 C   0  0  0  0  0  0  0  0  0  0  0  0
   18.6900  -16.7300    0.0000 C   0  0  0  0  0  0  0  0  0  0  0  0
   15.0500  -16.0300    0.0000 N   0  0  0  0  0  0  0  0  0  0  0  0
   13.8600  -16.7300    0.0000 C   0  0  0  0  0  0  0  0  0  0  0  0
   12.6700  -16.0300    0.0000 C   0  0  0  0  0  0  0  0  0  0  0  0
   12.1800  -14.7000    0.0000 C   0  0  0  0  0  0  0  0  0  0  0  0
   10.7800  -14.7000    0.0000 C   0  0  0  0  0  0  0  0  0  0  0  0
   10.3600  -16.0300    0.0000 C   0  0  0  0  0  0  0  0  0  0  0  0
   11.4800  -16.8700    0.0000 N   0  0  0  0  0  0  0  0  0  0  0  0
   11.4800  -18.2700    0.0000 C   0  0  0  0  0  0  0  0  0  0  0  0
   10.2200  -18.9700    0.0000 C   0  0  0  0  0  0  0  0  0  0  0  0
    9.0300  -18.2000    0.0000 C   0  0  0  0  0  0  0  0  0  0  0  0
    7.8400  -18.9000    0.0000 C   0  0  0  0  0  0  0  0  0  0  0  0
    9.0300  -16.8000    0.0000 C   0  0  0  0  0  0  0  0  0  0  0  0
   10.2200  -20.3700    0.0000 N   0  0  0  0  0  0  0  0  0  0  0  0
    9.0300  -21.0700    0.0000 C   0  0  0  0  0  0  0  0  0  0  0  0
    7.8400  -20.3700    0.0000 O   0  0  0  0  0  0  0  0  0  0  0  0
    6.5800  -21.0700    0.0000 C   0  0  0  0  0  0  0  0  0  0  0  0
    9.0300  -22.4700    0.0000 O   0  0  0  0  0  0  0  0  0  0  0  0
   12.6700  -18.9700    0.0000 O   0  0  0  0  0  0  0  0  0  0  0  0
   13.8600  -18.1300    0.0000 O   0  0  0  0  0  0  0  0  0  0  0  0
   42.6300  -17.4300    0.0000 O   0  0  0  0  0  0  0  0  0  0  0  0
   42.6300  -17.4300    0.0000 O   0  0  0  0  0  0  0  0  0  0  0  0
   42.6300  -17.4300    0.0000 O   0  0  0  0  0  0  0  0  0  0  0  0
   42.6300  -17.4300    0.0000 O   0  0  0  0  0  0  0  0  0  0  0  0
   42.6300  -17.4300    0.0000 O   0  0  0  0  0  0  0  0  0  0  0  0
   42.6300  -17.4300    0.0000 O   0  0  0  0  0  0  0  0  0  0  0  0
   42.6300  -17.4300    0.0000 O   0  0  0  0  0  0  0  0  0  0  0  0
   42.6300  -17.4300    0.0000 O   0  0  0  0  0  0  0  0  0  0  0  0
   17.3924  -13.9642    0.0000 C   0  0  0  0  0  0  0  0  0  0  0  0
   17.3924  -15.3609    0.0000 C   0  0  0  0  0  0  0  0  0  0  0  0
   18.5796  -16.0593    0.0000 C   0  0  0  0  0  0  0  0  0  0  0  0
   19.8367  -15.3609    0.0000 C   0  0  0  0  0  0  0  0  0  0  0  0
   19.8367  -13.9642    0.0000 C   0  0  0  0  0  0  0  0  0  0  0  0
   18.5796  -13.2658    0.0000 C   0  0  0  0  0  0  0  0  0  0  0  0
   18.5796  -17.4560    0.0000 N   0  0  0  0  0  0  0  0  0  0  0  0
   18.5796  -11.8691    0.0000 C   0  0  0  0  0  0  0  0  0  0  0  0
   18.5796  -10.4723    0.0000 C   0  0  0  0  0  0  0  0  0  0  0  0
   17.1829  -11.8691    0.0000 C   0  0  0  0  0  0  0  0  0  0  0  0
   19.9764  -11.8691    0.0000 C   0  0  0  0  0  0  0  0  0  0  0  0
   17.4622  -18.2941    0.0000 C   0  0  0  0  0  0  0  0  0  0  0  0
   17.8813  -19.6210    0.0000 C   0  0  0  0  0  0  0  0  0  0  0  0
   19.2780  -19.6210    0.0000 C   0  0  0  0  0  0  0  0  0  0  0  0
   19.7669  -18.2941    0.0000 C   0  0  0  0  0  0  0  0  0  0  0  0
   20.9541  -16.1990    0.0000 C   0  0  0  0  0  0  0  0  0  0  0  0
   20.9541  -17.5957    0.0000 C   0  0  0  0  0  0  0  0  0  0  0  0
   22.1413  -18.2941    0.0000 C   0  0  0  0  0  0  0  0  0  0  0  0
   23.3984  -17.5957    0.0000 C   0  0  0  0  0  0  0  0  0  0  0  0
   23.3984  -16.1990    0.0000 C   0  0  0  0  0  0  0  0  0  0  0  0
   22.1413  -15.5006    0.0000 C   0  0  0  0  0  0  0  0  0  0  0  0
   13.8307  -16.1990    0.0000 C   0  0  0  0  0  0  0  0  0  0  0  0
   13.8307  -17.5957    0.0000 C   0  0  0  0  0  0  0  0  0  0  0  0
   15.0179  -18.2941    0.0000 C   0  0  0  0  0  0  0  0  0  0  0  0
   16.2750  -17.5957    0.0000 C   0  0  0  0  0  0  0  0  0  0  0  0
   16.2750  -16.1990    0.0000 C   0  0  0  0  0  0  0  0  0  0  0  0
   15.0179  -15.5006    0.0000 C   0  0  0  0  0  0  0  0  0  0  0  0
   12.6435  -15.5006    0.0000 N   0  0  0  0  0  0  0  0  0  0  0  0
   11.4562  -16.1990    0.0000 C   0  0  0  0  0  0  0  0  0  0  0  0
   10.2690  -15.5006    0.0000 C   0  0  0  0  0  0  0  0  0  0  0  0
   11.4562  -17.5957    0.0000 O   0  0  0  0  0  0  0  0  0  0  0  0
    9.0818  -16.3387    0.0000 N   0  0  0  0  0  0  0  0  0  0  0  0
    7.9644  -15.5006    0.0000 C   0  0  0  0  0  0  0  0  0  0  0  0
    8.3834  -14.1737    0.0000 C   0  0  0  0  0  0  0  0  0  0  0  0
    9.7801  -14.1737    0.0000 C   0  0  0  0  0  0  0  0  0  0  0  0
    9.0818  -17.7354    0.0000 C   0  0  0  0  0  0  0  0  0  0  0  0
    7.8247  -18.4338    0.0000 C   0  0  0  0  0  0  0  0  0  0  0  0
   10.2690  -18.4338    0.0000 O   0  0  0  0  0  0  0  0  0  0  0  0
    6.6375  -17.6656    0.0000 C   0  0  0  0  0  0  0  0  0  0  0  0
    5.4502  -18.3639    0.0000 C   0  0  0  0  0  0  0  0  0  0  0  0
    6.6375  -16.2688    0.0000 C   0  0  0  0  0  0  0  0  0  0  0  0
    7.8247  -19.8305    0.0000 N   0  0  0  0  0  0  0  0  0  0  0  0
    6.6375  -20.5289    0.0000 C   0  0  0  0  0  0  0  0  0  0  0  0
    5.4502  -19.8305    0.0000 O   0  0  0  0  0  0  0  0  0  0  0  0
    4.1932  -20.5289    0.0000 C   0  0  0  0  0  0  0  0  0  0  0  0
    6.6375  -21.9256    0.0000 O   0  0  0  0  0  0  0  0  0  0  0  0
   24.5856  -15.5006    0.0000 N   0  0  0  0  0  0  0  0  0  0  0  0
   25.7729  -16.1990    0.0000 C   0  0  0  0  0  0  0  0  0  0  0  0
   26.9601  -15.5006    0.0000 C   0  0  0  0  0  0  0  0  0  0  0  0
   25.7729  -17.5957    0.0000 O   0  0  0  0  0  0  0  0  0  0  0  0
   28.1473  -16.3387    0.0000 N   0  0  0  0  0  0  0  0  0  0  0  0
   29.2647  -15.5006    0.0000 C   0  0  0  0  0  0  0  0  0  0  0  0
   28.8457  -14.1737    0.0000 C   0  0  0  0  0  0  0  0  0  0  0  0
   27.4490  -14.1737    0.0000 C   0  0  0  0  0  0  0  0  0  0  0  0
   28.1473  -17.7354    0.0000 C   0  0  0  0  0  0  0  0  0  0  0  0
   29.4044  -18.4338    0.0000 C   0  0  0  0  0  0  0  0  0  0  0  0
   26.9601  -18.4338    0.0000 O   0  0  0  0  0  0  0  0  0  0  0  0
   30.5916  -17.6656    0.0000 C   0  0  0  0  0  0  0  0  0  0  0  0
   31.7789  -18.3639    0.0000 C   0  0  0  0  0  0  0  0  0  0  0  0
   30.5916  -16.2688    0.0000 C   0  0  0  0  0  0  0  0  0  0  0  0
   29.4044  -19.8305    0.0000 N   0  0  0  0  0  0  0  0  0  0  0  0
   30.5916  -20.5289    0.0000 C   0  0  0  0  0  0  0  0  0  0  0  0
   31.7789  -19.8305    0.0000 O   0  0  0  0  0  0  0  0  0  0  0  0
   33.0359  -20.5289    0.0000 C   0  0  0  0  0  0  0  0  0  0  0  0
   30.5916  -21.9256    0.0000 O   0  0  0  0  0  0  0  0  0  0  0  0
   19.9500  -16.5900    0.0000 C   0  0  0  0  0  0  0  0  0  0  0  0
   21.2100  -17.0800    0.0000 C   0  0  0  0  0  0  0  0  0  0  0  0
   22.1200  -16.1000    0.0000 C   0  0  0  0  0  0  0  0  0  0  0  0
   21.4200  -14.9100    0.0000 N   0  0  0  0  0  0  0  0  0  0  0  0
   20.1600  -15.2600    0.0000 C   0  0  0  0  0  0  0  0  0  0  0  0
   23.5200  -16.1000    0.0000 C   0  0  0  0  0  0  0  0  0  0  0  0
   24.2200  -14.9800    0.0000 N   0  0  0  0  0  0  0  0  0  0  0  0
   23.5200  -13.7200    0.0000 O   0  0  0  0  0  0  0  0  0  0  0  0
   22.1200  -13.7200    0.0000 C   0  0  0  0  0  0  0  0  0  0  0  0
   24.2900  -17.2200    0.0000 O   0  0  0  0  0  0  0  0  0  0  0  0
   23.4500  -11.3400    0.0000 C   0  0  0  0  0  0  0  0  0  0  0  0
   22.0500  -11.3400    0.0000 C   0  0  0  0  0  0  0  0  0  0  0  0
   21.3500  -12.4600    0.0000 C   0  0  0  0  0  0  0  0  0  0  0  0
   26.1100  -11.2700    0.0000 C   0  0  0  0  0  0  0  0  0  0  0  0
   25.4800  -10.0800    0.0000 C   0  0  0  0  0  0  0  0  0  0  0  0
   24.1500  -10.0800    0.0000 C   0  0  0  0  0  0  0  0  0  0  0  0
   27.4400  -14.0000    0.0000 C   0  0  0  0  0  0  0  0  0  0  0  0
   28.2100  -12.6700    0.0000 C   0  0  0  0  0  0  0  0  0  0  0  0
   27.5100  -11.2700    0.0000 C   0  0  0  0  0  0  0  0  0  0  0  0
   26.4600  -14.9800    0.0000 C   0  0  0  0  0  0  0  0  0  0  0  0
   27.7200  -15.3300    0.0000 C   0  0  0  0  0  0  0  0  0  0  0  0
   18.4100  -18.5500    0.0000 C   0  0  0  0  0  0  0  0  0  0  0  0
   18.4100  -17.2200    0.0000 O   0  0  0  0  0  0  0  0  0  0  0  0
   19.9500  -12.5300    0.0000 N   0  0  0  0  0  0  0  0  0  0  0  0
   19.2500  -11.2700    0.0000 C   0  0  0  0  0  0  0  0  0  0  0  0
   17.9200  -11.2700    0.0000 C   0  0  0  0  0  0  0  0  0  0  0  0
   19.9500  -10.0800    0.0000 O   0  0  0  0  0  0  0  0  0  0  0  0
   17.2900  -10.0800    0.0000 N   0  0  0  0  0  0  0  0  0  0  0  0
   15.8900  -10.0800    0.0000 C   0  0  0  0  0  0  0  0  0  0  0  0
   15.1900  -11.2700    0.0000 C   0  0  0  0  0  0  0  0  0  0  0  0
   15.8900  -12.4600    0.0000 N   0  0  0  0  0  0  0  0  0  0  0  0
   17.2900  -12.4600    0.0000 C   0  0  0  0  0  0  0  0  0  0  0  0
   13.7900  -11.2700    0.0000 C   0  0  0  0  0  0  0  0  0  0  0  0
   17.2900  -19.2500    0.0000 N   0  0  0  0  0  0  0  0  0  0  0  0
   17.2900  -20.6500    0.0000 C   0  0  0  0  0  0  0  0  0  0  0  0
   18.4100  -21.3500    0.0000 C   0  0  0  0  0  0  0  0  0  0  0  0
   19.6000  -20.6500    0.0000 C   0  0  0  0  0  0  0  0  0  0  0  0
   19.6000  -19.2500    0.0000 C   0  0  0  0  0  0  0  0  0  0  0  0
   20.8600  -21.3500    0.0000 C   0  0  0  0  0  0  0  0  0  0  0  0
   22.0500  -20.6500    0.0000 C   0  0  0  0  0  0  0  0  0  0  0  0
   22.0500  -19.2500    0.0000 C   0  0  0  0  0  0  0  0  0  0  0  0
   20.8600  -18.5500    0.0000 C   0  0  0  0  0  0  0  0  0  0  0  0
   16.0300  -21.3500    0.0000 C   0  0  0  0  0  0  0  0  0  0  0  0
   16.0300  -22.7500    0.0000 C   0  0  0  0  0  0  0  0  0  0  0  0
   17.2900  -23.4500    0.0000 C   0  0  0  0  0  0  0  0  0  0  0  0
   18.4100  -22.7500    0.0000 C   0  0  0  0  0  0  0  0  0  0  0  0
   26.4600  -16.3800    0.0000 C   0  0  0  0  0  0  0  0  0  0  0  0
   25.2700  -17.0800    0.0000 N   0  0  0  0  0  0  0  0  0  0  0  0
   27.6500  -17.0800    0.0000 O   0  0  0  0  0  0  0  0  0  0  0  0
   25.2700  -18.4100    0.0000 S   0  0  0  0  0  0  0  0  0  0  0  0
   26.6700  -18.4100    0.0000 O   0  0  0  0  0  0  0  0  0  0  0  0
   23.8700  -18.4100    0.0000 O   0  0  0  0  0  0  0  0  0  0  0  0
   25.2700  -19.8100    0.0000 C   0  0  0  0  0  0  0  0  0  0  0  0
   24.5700  -21.0000    0.0000 C   0  0  0  0  0  0  0  0  0  0  0  0
   25.9700  -21.0000    0.0000 C   0  0  0  0  0  0  0  0  0  0  0  0
   23.6600  -23.4500    0.0000 O   0  0  0  0  0  0  0  0  0  0  0  0
   26.7400  -23.3800    0.0000 O   0  0  0  0  0  0  0  0  0  0  0  0
   19.3900  -16.1700    0.0000 C   0  0  0  0  0  0  0  0  0  0  0  0
   20.5800  -16.6600    0.0000 C   0  0  0  0  0  0  0  0  0  0  0  0
   21.4900  -15.6800    0.0000 C   0  0  0  0  0  0  0  0  0  0  0  0
   20.7900  -14.4900    0.0000 N   0  0  0  0  0  0  0  0  0  0  0  0
   19.5300  -14.7700    0.0000 C   0  0  0  0  0  0  0  0  0  0  0  0
   22.8900  -15.6800    0.0000 C   0  0  0  0  0  0  0  0  0  0  0  0
   23.5900  -14.5600    0.0000 N   0  0  0  0  0  0  0  0  0  0  0  0
   22.8900  -13.3000    0.0000 O   0  0  0  0  0  0  0  0  0  0  0  0
   21.4900  -13.3000    0.0000 C   0  0  0  0  0  0  0  0  0  0  0  0
   23.6600  -16.8000    0.0000 O   0  0  0  0  0  0  0  0  0  0  0  0
   22.8200  -10.9200    0.0000 C   0  0  0  0  0  0  0  0  0  0  0  0
   21.4200  -10.9200    0.0000 C   0  0  0  0  0  0  0  0  0  0  0  0
   20.7200  -12.0400    0.0000 C   0  0  0  0  0  0  0  0  0  0  0  0
   25.4800  -10.8500    0.0000 C   0  0  0  0  0  0  0  0  0  0  0  0
   24.8500   -9.6600    0.0000 C   0  0  0  0  0  0  0  0  0  0  0  0
   23.5200   -9.6600    0.0000 C   0  0  0  0  0  0  0  0  0  0  0  0
   26.8100  -13.5800    0.0000 C   0  0  0  0  0  0  0  0  0  0  0  0
   27.5800  -12.2500    0.0000 C   0  0  0  0  0  0  0  0  0  0  0  0
   26.8800  -10.8500    0.0000 C   0  0  0  0  0  0  0  0  0  0  0  0
   25.8300  -14.5600    0.0000 C   0  0  0  0  0  0  0  0  0  0  0  0
   27.0900  -14.9100    0.0000 C   0  0  0  0  0  0  0  0  0  0  0  0
   17.7800  -18.2000    0.0000 C   0  0  0  0  0  0  0  0  0  0  0  0
   17.7800  -16.8000    0.0000 O   0  0  0  0  0  0  0  0  0  0  0  0
   19.3200  -12.1100    0.0000 N   0  0  0  0  0  0  0  0  0  0  0  0
   18.6200  -10.8500    0.0000 C   0  0  0  0  0  0  0  0  0  0  0  0
   17.2900  -10.8500    0.0000 C   0  0  0  0  0  0  0  0  0  0  0  0
   19.3200   -9.6600    0.0000 O   0  0  0  0  0  0  0  0  0  0  0  0
   16.5900   -9.6600    0.0000 N   0  0  0  0  0  0  0  0  0  0  0  0
   15.1900   -9.6600    0.0000 C   0  0  0  0  0  0  0  0  0  0  0  0
   14.4900  -10.8500    0.0000 C   0  0  0  0  0  0  0  0  0  0  0  0
   15.1900  -12.0400    0.0000 N   0  0  0  0  0  0  0  0  0  0  0  0
   16.5900  -12.0400    0.0000 C   0  0  0  0  0  0  0  0  0  0  0  0
   13.0900  -10.8500    0.0000 C   0  0  0  0  0  0  0  0  0  0  0  0
   16.5900  -18.9000    0.0000 N   0  0  0  0  0  0  0  0  0  0  0  0
   16.5900  -20.3000    0.0000 C   0  0  0  0  0  0  0  0  0  0  0  0
   17.7800  -21.0000    0.0000 C   0  0  0  0  0  0  0  0  0  0  0  0
   18.9700  -20.3000    0.0000 C   0  0  0  0  0  0  0  0  0  0  0  0
   18.9700  -18.9000    0.0000 C   0  0  0  0  0  0  0  0  0  0  0  0
   20.2300  -21.0000    0.0000 C   0  0  0  0  0  0  0  0  0  0  0  0
   21.4200  -20.3000    0.0000 C   0  0  0  0  0  0  0  0  0  0  0  0
   21.4200  -18.9000    0.0000 C   0  0  0  0  0  0  0  0  0  0  0  0
   20.2300  -18.2000    0.0000 C   0  0  0  0  0  0  0  0  0  0  0  0
   15.3300  -21.0000    0.0000 C   0  0  0  0  0  0  0  0  0  0  0  0
   15.3300  -22.4000    0.0000 C   0  0  0  0  0  0  0  0  0  0  0  0
   16.5900  -23.1000    0.0000 C   0  0  0  0  0  0  0  0  0  0  0  0
   17.7800  -22.4000    0.0000 C   0  0  0  0  0  0  0  0  0  0  0  0
   25.8300  -15.9600    0.0000 C   0  0  0  0  0  0  0  0  0  0  0  0
   24.6400  -16.6600    0.0000 N   0  0  0  0  0  0  0  0  0  0  0  0
   27.0200  -16.6600    0.0000 O   0  0  0  0  0  0  0  0  0  0  0  0
   24.6400  -18.0600    0.0000 S   0  0  0  0  0  0  0  0  0  0  0  0
   26.0400  -18.0600    0.0000 O   0  0  0  0  0  0  0  0  0  0  0  0
   23.2400  -18.0600    0.0000 O   0  0  0  0  0  0  0  0  0  0  0  0
   24.6400  -19.4600    0.0000 C   0  0  0  0  0  0  0  0  0  0  0  0
   23.9400  -20.6500    0.0000 C   0  0  0  0  0  0  0  0  0  0  0  0
   25.3400  -20.6500    0.0000 C   0  0  0  0  0  0  0  0  0  0  0  0
   33.1164  -17.1963    0.0000 C   0  0  0  0  0  0  0  0  0  0  0  0
   33.1237  -18.5903    0.0000 C   0  0  0  0  0  0  0  0  0  0  0  0
   34.3298  -16.5030    0.0000 C   0  0  0  0  0  0  0  0  0  0  0  0
   31.9103  -16.5103    0.0000 N   0  0  0  0  0  0  0  0  0  0  0  0
   34.1059  -19.5798    0.0000 C   0  0  0  0  0  0  0  0  0  0  0  0
   35.5358  -17.1892    0.0000 C   0  0  0  0  0  0  0  0  0  0  0  0
   30.7041  -17.2037    0.0000 C   0  0  0  0  0  0  0  0  0  0  0  0
   33.3982  -20.7786    0.0000 C   0  0  0  0  0  0  0  0  0  0  0  0
   35.4926  -19.5868    0.0000 C   0  0  0  0  0  0  0  0  0  0  0  0
   36.7348  -16.4960    0.0000 C   0  0  0  0  0  0  0  0  0  0  0  0
   35.5431  -18.5831    0.0000 O   0  0  0  0  0  0  0  0  0  0  0  0
   29.4983  -16.5175    0.0000 C   0  0  0  0  0  0  0  0  0  0  0  0
   30.7041  -18.5975    0.0000 O   0  0  0  0  0  0  0  0  0  0  0  0
   34.0915  -21.9846    0.0000 C   0  0  0  0  0  0  0  0  0  0  0  0
   36.1859  -20.7931    0.0000 C   0  0  0  0  0  0  0  0  0  0  0  0
   36.7348  -15.0948    0.0000 C   0  0  0  0  0  0  0  0  0  0  0  0
   37.9408  -17.1819    0.0000 N   0  0  0  0  0  0  0  0  0  0  0  0
   28.2849  -17.2108    0.0000 N   0  0  0  0  0  0  0  0  0  0  0  0
   29.4909  -14.6983    0.0000 C   0  0  0  0  0  0  0  0  0  0  0  0
   35.4782  -21.9919    0.0000 C   0  0  0  0  0  0  0  0  0  0  0  0
   35.5212  -14.3942    0.0000 C   0  0  0  0  0  0  0  0  0  0  0  0
   39.1540  -16.4886    0.0000 C   0  0  0  0  0  0  0  0  0  0  0  0
   27.0787  -16.5247    0.0000 C   0  0  0  0  0  0  0  0  0  0  0  0
   30.7041  -13.9977    0.0000 C   0  0  0  0  0  0  0  0  0  0  0  0
   28.2776  -13.9977    0.0000 C   0  0  0  0  0  0  0  0  0  0  0  0
   35.5212  -13.0004    0.0000 C   0  0  0  0  0  0  0  0  0  0  0  0
   34.3225  -15.1019    0.0000 C   0  0  0  0  0  0  0  0  0  0  0  0
   40.3603  -17.1748    0.0000 O   0  0  0  0  0  0  0  0  0  0  0  0
   39.1465  -15.0875    0.0000 O   0  0  0  0  0  0  0  0  0  0  0  0
   25.8799  -17.2181    0.0000 N   0  0  0  0  0  0  0  0  0  0  0  0
   27.0787  -15.1237    0.0000 O   0  0  0  0  0  0  0  0  0  0  0  0
   34.3153  -12.3071    0.0000 C   0  0  0  0  0  0  0  0  0  0  0  0
   33.1092  -14.4013    0.0000 C   0  0  0  0  0  0  0  0  0  0  0  0
   41.5663  -16.4815    0.0000 C   0  0  0  0  0  0  0  0  0  0  0  0
   24.6737  -16.5321    0.0000 C   0  0  0  0  0  0  0  0  0  0  0  0
   25.8799  -18.6120    0.0000 C   0  0  0  0  0  0  0  0  0  0  0  0
   33.1092  -13.0075    0.0000 C   0  0  0  0  0  0  0  0  0  0  0  0
   42.7723  -17.1675    0.0000 C   0  0  0  0  0  0  0  0  0  0  0  0
   23.4604  -17.2252    0.0000 C   0  0  0  0  0  0  0  0  0  0  0  0
   42.7653  -18.5615    0.0000 C   0  0  0  0  0  0  0  0  0  0  0  0
   44.1013  -16.7485    0.0000 S   0  0  0  0  0  0  0  0  0  0  0  0
   22.1171  -16.8642    0.0000 N   0  0  0  0  0  0  0  0  0  0  0  0
   23.4626  -18.6191    0.0000 C   0  0  0  0  0  0  0  0  0  0  0  0
   44.0868  -18.9947    0.0000 N   0  0  0  0  0  0  0  0  0  0  0  0
   44.9100  -17.8754    0.0000 C   0  0  0  0  0  0  0  0  0  0  0  0
   21.3445  -18.0341    0.0000 C   0  0  0  0  0  0  0  0  0  0  0  0
   22.2256  -19.1175    0.0000 S   0  0  0  0  0  0  0  0  0  0  0  0
   19.9506  -18.0296    0.0000 C   0  0  0  0  0  0  0  0  0  0  0  0
   19.1994  -16.8594    0.0000 C   0  0  0  0  0  0  0  0  0  0  0  0
   19.3149  -19.2789    0.0000 C   0  0  0  0  0  0  0  0  0  0  0  0
  1  2  2  0
  2  3  1  0
  3  4  2  0
  4  5  1  0
  5  6  2  0
  1  6  1  0
  3  7  1  0
  6  8  1  0
  8  9  1  0
  8 10  1  0
  8 11  1  0
  7 12  1  0
 12 13  1  0
 13 14  1  0
 14 15  1  0
  7 15  1  0
 16 17  2  0
 17 18  1  0
 18 19  2  0
 19 20  1  0
 20 21  2  0
 16 21  1  0
 15 17  1  6
 22 23  2  0
 23 24  1  0
 24 25  2  0
 25 26  1  0
 26 27  2  0
 22 27  1  0
 12 25  1  1
 22 28  1  0
 28 29  1  0
 30 29  1  1
 29 31  2  0
 32 33  1  0
 33 34  1  0
 34 35  1  0
 35 30  1  0
 32 30  1  0
 32 36  1  0
 36 37  1  0
 36 38  2  0
 37 39  1  0
 39 40  1  0
 39 41  1  0
 37 42  1  1
 42 43  1  0
 43 44  1  0
 44 45  1  0
 43 46  2  0
 47 48  1  0
 49 48  1  6
 48 50  2  0
 51 52  1  0
 52 53  1  0
 53 54  1  0
 54 49  1  0
 51 49  1  0
 51 55  1  0
 55 56  1  0
 55 57  2  0
 56 58  1  0
 58 59  1  0
 58 60  1  0
 56 61  1  6
 61 62  1  0
 62 63  1  0
 63 64  1  0
 62 65  2  0
 47 20  1  0
 67 68  2  0
 68 69  1  0
 69 70  2  0
 70 71  1  0
 71 72  2  0
 67 72  1  0
 69 77  1  0
 72 73  1  0
 73 74  1  0
 73 75  1  0
 73 76  1  0
 77 78  1  0
 78 79  1  0
 79 80  1  0
 80 81  1  0
 77 81  1  0
 83 82  2  0
 82 87  1  0
 87 86  2  0
 86 85  1  0
 85 84  2  0
 83 84  1  0
 81 82  1  6
110109  1  0
109108  2  0
108107  1  0
107112  2  0
112111  1  0
110111  2  0
 78107  1  1
110113  1  0
113114  1  0
115114  1  1
114131  2  0
119118  1  0
118117  1  0
117116  1  0
116115  1  0
119115  1  0
119120  1  0
120121  1  0
120130  2  0
121122  1  0
122123  1  0
122124  1  0
121125  1  1
125126  1  0
126127  1  0
127128  1  0
126129  2  0
 88 89  1  0
 90 89  1  6
 89106  2  0
 94 93  1  0
 93 92  1  0
 92 91  1  0
 91 90  1  0
 94 90  1  0
 94 95  1  0
 95 96  1  0
 95105  2  0
 96 97  1  0
 97 98  1  0
 97 99  1  0
 96100  1  6
100101  1  0
101102  1  0
102103  1  0
101104  2  0
 88 85  1  0
140141  2  0
141142  1  0
142143  2  0
143144  1  0
144145  2  0
140145  1  0
142146  1  0
145147  1  0
147148  1  0
147149  1  0
147150  1  0
146151  1  0
151152  1  0
152153  1  0
153154  1  0
146154  1  0
155156  2  0
156157  1  0
157158  2  0
158159  1  0
159160  2  0
155160  1  0
154156  1  6
161162  2  0
162163  1  0
163164  2  0
164165  1  0
165166  2  0
161166  1  0
151164  1  1
161167  1  0
167168  1  0
169168  1  1
168170  2  0
171172  1  0
172173  1  0
173174  1  0
174169  1  0
171169  1  0
171175  1  0
175176  1  0
175177  2  0
176178  1  0
178179  1  0
178180  1  0
176181  1  1
181182  1  0
182183  1  0
183184  1  0
182185  2  0
186187  1  0
188187  1  6
187189  2  0
190191  1  0
191192  1  0
192193  1  0
193188  1  0
190188  1  0
190194  1  0
194195  1  0
194196  2  0
195197  1  0
197198  1  0
197199  1  0
195200  1  6
200201  1  0
201202  1  0
202203  1  0
201204  2  0
186159  1  0
205206  1  0
207206  1  6
207208  1  0
208209  1  0
205209  1  0
210211  1  0
212213  2  0
208213  1  0
210214  2  0
215216  1  0
216217  1  0
217213  1  0
218219  1  0
215220  1  0
222223  2  0
218223  1  0
221224  1  0
224225  1  0
221225  1  1
224211  1  0
222221  1  0
226227  1  0
205227  1  1
207210  1  0
220219  1  0
217228  1  1
228229  1  0
229230  1  0
229231  2  0
230232  2  0
232233  1  0
233234  2  0
234235  1  0
235236  2  0
230236  1  0
234237  1  0
226238  2  0
238239  1  0
239240  2  0
240241  1  0
241242  2  0
226242  1  0
241243  1  0
243244  2  0
244245  1  0
245246  2  0
242246  1  0
239247  1  0
247248  2  0
248249  1  0
249250  2  0
240250  1  0
224251  1  6
251252  1  0
251253  2  0
252254  1  0
254255  2  0
254256  2  0
254257  1  0
258259  1  0
259257  1  0
257258  1  0
262263  1  0
264263  1  6
264265  1  0
265266  1  0
262266  1  0
267268  1  0
269270  2  0
265270  1  0
267271  2  0
272273  1  0
273274  1  0
274270  1  0
275276  1  0
272277  1  0
279280  2  0
275280  1  0
278281  1  0
281282  1  0
278282  1  1
281268  1  0
279278  1  0
283284  1  0
262284  1  1
264267  1  0
277276  1  0
274285  1  1
285286  1  0
286287  1  0
286288  2  0
287289  2  0
289290  1  0
290291  2  0
291292  1  0
292293  2  0
287293  1  0
291294  1  0
283295  2  0
295296  1  0
296297  2  0
297298  1  0
298299  2  0
283299  1  0
298300  1  0
300301  2  0
301302  1  0
302303  2  0
299303  1  0
296304  1  0
304305  2  0
305306  1  0
306307  2  0
297307  1  0
281308  1  6
308309  1  0
308310  2  0
309311  1  0
311312  2  0
311313  2  0
311314  1  0
315316  1  0
316314  1  0
314315  1  0
317318  1  6
317319  1  0
317320  1  0
318321  1  0
319322  1  0
320323  1  0
321324  2  0
321325  1  0
322326  1  0
322327  1  1
323328  1  0
323329  2  0
324330  1  0
325331  2  0
326332  1  6
326333  1  0
328334  1  1
328335  1  0
330336  2  0
332337  1  0
333338  1  0
334339  1  0
335340  1  0
335341  1  0
337342  2  0
337343  1  0
338344  1  0
338345  2  0
339346  1  0
339347  2  0
342348  1  0
343349  2  0
344350  1  0
346351  1  0
346352  1  0
348353  2  0
350354  1  0
351355  1  0
354356  2  0
354357  1  0
355358  1  0
355359  2  0
356360  1  0
357361  1  0
358362  2  0
359363  1  0
362364  1  0
364365  1  0
364366  1  0
331336  1  0
349353  1  0
360361  2  0
362363  1  0
M  STY  2   1 MUL   2 MUL
M  SLB  2   1   1   2   2
M  SCN  2   1 HT    2 HT 
M  SAL   1 15   1   2   3   4   5   6   7   8   9  10  11  12  13  14  15
M  SAL   1 15  16  17  18  19  20  21  22  23  24  25  26  27  28  29  30
M  SAL   1 15  31  32  33  34  35  36  37  38  39  40  41  42  43  44  45
M  SAL   1 15  46  47  48  49  50  51  52  53  54  55  56  57  58  59  60
M  SAL   1 15  61  62  63  64  65  67  68  69  70  71  72  73  74  75  76
M  SAL   1 15  77  78  79  80  81  82  83  84  85  86  87  88  89  90  91
M  SAL   1 15  92  93  94  95  96  97  98  99 100 101 102 103 104 105 106
M  SAL   1 15 107 108 109 110 111 112 113 114 115 116 117 118 119 120 121
M  SAL   1 10 122 123 124 125 126 127 128 129 130 131
M  SPA   1 15   1   2   3   4   5   6   8   9  10  11   7  12  13  14  15
M  SPA   1 15  17  16  21  20  19  18  47  48  49  54  53  52  51  55  56
M  SPA   1 15  58  59  60  61  62  63  64  65  57  50  25  24  23  22  27
M  SPA   1 15  26  28  29  30  35  34  33  32  36  37  39  40  41  42  43
M  SPA   1  5  44  45  46  38  31
M  SDI   1  4    4.4100  -23.5200    4.4100   -8.4000
M  SDI   1  4   37.2400   -8.4000   37.2400  -23.5200
M  SMT   1 2
M  SAL   2  9  66 132 133 134 135 136 137 138 139
M  SPA   2  1  66
M  SDI   2  4   40.4600  -18.3400   40.4600  -16.1700
M  SDI   2  4   43.4700  -16.1700   43.4700  -18.3400
M  SMT   2 9
M  END
