 
     RDKit          2D

 80 84  0  0  1  0  0  0  0  0999 V2000
   19.1100  -17.9200    0.0000 C   0  0  0  0  0  0  0  0  0  0  0  0
   17.9900  -17.0800    0.0000 O   0  0  0  0  0  0  0  0  0  0  0  0
   18.6900  -19.2500    0.0000 C   0  0  0  0  0  0  0  0  0  0  0  0
   16.8700  -17.9200    0.0000 C   0  0  0  0  0  0  0  0  0  0  0  0
   17.2900  -19.2500    0.0000 S   0  0  0  0  0  0  0  0  0  0  0  0
   15.6800  -17.2900    0.0000 C   0  0  0  0  0  0  0  0  0  0  0  0
   14.3500  -18.1300    0.0000 O   0  0  0  0  0  0  0  0  0  0  0  0
   20.3000  -15.8200    0.0000 C   0  0  0  0  0  0  0  0  0  0  0  0
   20.3000  -17.2200    0.0000 N   0  0  0  0  0  0  0  0  0  0  0  0
   21.4900  -17.9200    0.0000 C   0  0  0  0  0  0  0  0  0  0  0  0
   22.7500  -17.2200    0.0000 N   0  0  0  0  0  0  0  0  0  0  0  0
   22.7500  -15.8200    0.0000 C   0  0  0  0  0  0  0  0  0  0  0  0
   21.4900  -15.1200    0.0000 C   0  0  0  0  0  0  0  0  0  0  0  0
   21.4900  -19.3200    0.0000 O   0  0  0  0  0  0  0  0  0  0  0  0
   23.9400  -15.1200    0.0000 N   0  0  0  0  0  0  0  0  0  0  0  0
   20.8600  -17.7100    0.0000 C   0  0  0  0  0  0  0  0  0  0  0  0
   22.0500  -17.0100    0.0000 C   0  0  0  0  0  0  0  0  0  0  0  0
   23.2400  -17.7100    0.0000 N   0  0  0  0  0  0  0  0  0  0  0  0
   24.5000  -17.0100    0.0000 C   0  0  0  0  0  0  0  0  0  0  0  0
   25.6900  -17.7100    0.0000 C   0  0  0  0  0  0  0  0  0  0  0  0
   26.8800  -17.0100    0.0000 N   0  0  0  0  0  0  0  0  0  0  0  0
   28.1400  -17.7100    0.0000 C   0  0  0  0  0  0  0  0  0  0  0  0
   29.3300  -17.0100    0.0000 C   0  0  0  0  0  0  0  0  0  0  0  0
   30.5200  -17.7100    0.0000 N   0  0  0  0  0  0  0  0  0  0  0  0
   31.7800  -17.0100    0.0000 C   0  0  0  0  0  0  0  0  0  0  0  0
   32.9700  -17.7100    0.0000 C   0  0  0  0  0  0  0  0  0  0  0  0
   34.1600  -17.0100    0.0000 C   0  0  0  0  0  0  0  0  0  0  0  0
   35.3500  -17.7100    0.0000 C   0  0  0  0  0  0  0  0  0  0  0  0
   25.6900  -19.1100    0.0000 N   0  0  0  0  0  0  0  0  0  0  0  0
   26.8800  -19.8100    0.0000 C   0  0  0  0  0  0  0  0  0  0  0  0
   28.1400  -19.1100    0.0000 C   0  0  0  0  0  0  0  0  0  0  0  0
   32.9700  -19.1100    0.0000 C   0  0  0  0  0  0  0  0  0  0  0  0
   34.1600  -19.8100    0.0000 C   0  0  0  0  0  0  0  0  0  0  0  0
   35.3500  -19.1100    0.0000 C   0  0  0  0  0  0  0  0  0  0  0  0
   29.3300  -15.6100    0.0000 O   0  0  0  0  0  0  0  0  0  0  0  0
   26.8800  -21.2100    0.0000 O   0  0  0  0  0  0  0  0  0  0  0  0
   24.5000  -19.8100    0.0000 C   0  0  0  0  0  0  0  0  0  0  0  0
   29.3300  -19.8100    0.0000 O   0  0  0  0  0  0  0  0  0  0  0  0
   23.6600  -15.8900    0.0000 C   0  0  0  0  0  0  0  0  0  0  0  0
   25.2000  -15.8200    0.0000 C   0  0  0  0  0  0  0  0  0  0  0  0
   22.0500  -15.6100    0.0000 O   0  0  0  0  0  0  0  0  0  0  0  0
   19.6700  -16.8700    0.0000 O   0  0  0  0  0  0  0  0  0  0  0  0
   18.5500  -17.7100    0.0000 C   0  0  0  0  0  0  0  0  0  0  0  0
   19.0400  -19.0400    0.0000 N   0  0  0  0  0  0  0  0  0  0  0  0
   20.4400  -19.0400    0.0000 N   0  0  0  0  0  0  0  0  0  0  0  0
   17.2200  -17.2900    0.0000 C   0  0  0  0  0  0  0  0  0  0  0  0
   36.5400  -19.8100    0.0000 F   0  0  0  0  0  0  0  0  0  0  0  0
   30.9192  -19.8135    0.0000 K   0  0  0  0  0 15  0  0  0  0  0  0
   13.8344  -20.3696    0.0000 C   0  0  0  0  0  0  0  0  0  0  0  0
   15.0467  -19.6696    0.0000 C   0  0  0  0  0  0  0  0  0  0  0  0
   16.2591  -20.3696    0.0000 N   0  0  0  0  0  0  0  0  0  0  0  0
   17.4716  -19.6696    0.0000 C   0  0  0  0  0  0  0  0  0  0  0  0
   18.6839  -20.3696    0.0000 C   0  0  0  0  0  0  0  0  0  0  0  0
   19.8963  -19.6696    0.0000 N   0  0  0  0  0  0  0  0  0  0  0  0
   21.1088  -20.3696    0.0000 C   0  0  0  0  0  0  0  0  0  0  0  0
   22.3211  -19.6696    0.0000 C   0  0  0  0  0  0  0  0  0  0  0  0
   23.5336  -20.3696    0.0000 N   0  0  0  0  0  0  0  0  0  0  0  0
   24.7459  -19.6696    0.0000 C   0  0  0  0  0  0  0  0  0  0  0  0
   25.9583  -20.3696    0.0000 C   0  0  0  0  0  0  0  0  0  0  0  0
   27.1708  -19.6696    0.0000 C   0  0  0  0  0  0  0  0  0  0  0  0
   28.3831  -20.3696    0.0000 C   0  0  0  0  0  0  0  0  0  0  0  0
   18.6839  -21.7695    0.0000 N   0  0  0  0  0  0  0  0  0  0  0  0
   19.8963  -22.4695    0.0000 C   0  0  0  0  0  0  0  0  0  0  0  0
   21.1088  -21.7695    0.0000 C   0  0  0  0  0  0  0  0  0  0  0  0
   25.9583  -21.7695    0.0000 C   0  0  0  0  0  0  0  0  0  0  0  0
   27.1708  -22.4695    0.0000 C   0  0  0  0  0  0  0  0  0  0  0  0
   28.3831  -21.7695    0.0000 C   0  0  0  0  0  0  0  0  0  0  0  0
   22.3211  -18.2696    0.0000 O   0  0  0  0  0  0  0  0  0  0  0  0
   19.8963  -23.8694    0.0000 O   0  0  0  0  0  0  0  0  0  0  0  0
   17.4756  -22.4672    0.0000 C   0  0  0  0  0  0  0  0  0  0  0  0
   22.3438  -22.4829    0.0000 O   0  0  0  0  0  0  0  0  0  0  0  0
   16.6300  -18.5723    0.0000 C   0  0  0  0  0  0  0  0  0  0  0  0
   18.1715  -18.4572    0.0000 C   0  0  0  0  0  0  0  0  0  0  0  0
   15.0467  -18.2696    0.0000 O   0  0  0  0  0  0  0  0  0  0  0  0
   12.6959  -19.5594    0.0000 O   0  0  0  0  0  0  0  0  0  0  0  0
   11.5697  -20.3909    0.0000 C   0  0  0  0  0  0  0  0  0  0  0  0
   12.0122  -21.7190    0.0000 N   0  0  0  0  0  0  0  0  0  0  0  0
   13.4122  -21.7083    0.0000 N   0  0  0  0  0  0  0  0  0  0  0  0
   10.2106  -19.9609    0.0000 C   0  0  0  0  0  0  0  0  0  0  0  0
   29.5697  -22.4550    0.0000 F   0  0  0  0  0  0  0  0  0  0  0  0
  1  2  1  0
  1  3  1  0
  2  4  1  0
  3  5  1  0
  4  6  1  6
  6  7  1  0
  4  5  1  0
  8  9  1  0
  9 10  1  0
 10 11  1  0
 11 12  2  0
 12 13  1  0
  8 13  2  0
  1  9  1  6
 10 14  2  0
 12 15  1  0
 16 17  1  0
 17 18  1  0
 18 19  1  0
 19 20  1  0
 20 21  2  0
 21 22  1  0
 22 23  1  0
 23 24  1  0
 24 25  1  0
 25 26  1  0
 26 27  2  0
 27 28  1  0
 20 29  1  0
 29 30  1  0
 30 31  1  0
 31 22  2  0
 26 32  1  0
 32 33  2  0
 33 34  1  0
 34 28  2  0
 23 35  2  0
 30 36  2  0
 29 37  1  0
 31 38  1  0
 19 39  1  0
 19 40  1  0
 17 41  2  0
 16 42  1  0
 42 43  1  0
 43 44  2  0
 44 45  1  0
 16 45  2  0
 43 46  1  0
 34 47  1  0
 49 50  1  0
 50 51  1  0
 51 52  1  0
 52 53  1  0
 53 54  2  0
 54 55  1  0
 55 56  1  0
 56 57  1  0
 57 58  1  0
 58 59  1  0
 59 60  2  0
 60 61  1  0
 53 62  1  0
 62 63  1  0
 63 64  1  0
 64 55  2  0
 59 65  1  0
 65 66  2  0
 66 67  1  0
 67 61  2  0
 56 68  2  0
 63 69  2  0
 62 70  1  0
 64 71  1  0
 52 72  1  0
 52 73  1  0
 50 74  2  0
 49 75  1  0
 75 76  1  0
 76 77  2  0
 77 78  1  0
 49 78  2  0
 76 79  1  0
 67 80  1  0
M  CHG  2  38  -1  48   1
M  END
