 
     RDKit          2D

137141  0  0  0  0  0  0  0  0999 V2000
    8.7500  -18.5500    0.0000 C   0  0  0  0  0  0  0  0  0  0  0  0
    8.7500  -19.9500    0.0000 C   0  0  0  0  0  0  0  0  0  0  0  0
    9.9400  -20.6500    0.0000 C   0  0  0  0  0  0  0  0  0  0  0  0
   11.2000  -19.9500    0.0000 C   0  0  0  0  0  0  0  0  0  0  0  0
   11.2000  -18.5500    0.0000 C   0  0  0  0  0  0  0  0  0  0  0  0
    9.9400  -17.8500    0.0000 N   0  0  0  0  0  0  0  0  0  0  0  0
   12.3900  -20.6500    0.0000 S   0  0  0  0  0  0  0  0  0  0  0  0
   13.5800  -19.9500    0.0000 N   0  0  0  0  0  0  0  0  0  0  0  0
   11.4100  -21.6300    0.0000 O   0  0  0  0  0  0  0  0  0  0  0  0
   13.3700  -21.6300    0.0000 O   0  0  0  0  0  0  0  0  0  0  0  0
   14.9100  -20.3700    0.0000 C   0  0  0  0  0  0  0  0  0  0  0  0
   15.6800  -19.2500    0.0000 C   0  0  0  0  0  0  0  0  0  0  0  0
   14.9100  -18.2000    0.0000 C   0  0  0  0  0  0  0  0  0  0  0  0
   13.5800  -18.6200    0.0000 C   0  0  0  0  0  0  0  0  0  0  0  0
   14.9100  -22.7500    0.0000 C   0  0  0  0  0  0  0  0  0  0  0  0
   15.5400  -24.0100    0.0000 C   0  0  0  0  0  0  0  0  0  0  0  0
   16.9400  -24.0100    0.0000 C   0  0  0  0  0  0  0  0  0  0  0  0
   17.7100  -22.8200    0.0000 C   0  0  0  0  0  0  0  0  0  0  0  0
   17.0100  -21.5600    0.0000 C   0  0  0  0  0  0  0  0  0  0  0  0
   15.6100  -21.5600    0.0000 C   0  0  0  0  0  0  0  0  0  0  0  0
   17.7100  -20.3700    0.0000 F   0  0  0  0  0  0  0  0  0  0  0  0
   15.3452  -16.8694    0.0000 C   0  0  0  0  0  0  0  0  0  0  0  0
   16.7452  -16.8694    0.0000 N   0  0  0  0  0  0  0  0  0  0  0  0
   17.4410  -15.6640    0.0000 C   0  0  0  0  0  0  0  0  0  0  0  0
   21.6300  -19.2500    0.0000 C   0  0  0  0  0  0  0  0  0  0  0  0
   22.8424  -19.9500    0.0000 C   0  0  0  0  0  0  0  0  0  0  0  0
   20.4176  -19.9500    0.0000 O   0  0  0  0  0  0  0  0  0  0  0  0
   21.6300  -17.8500    0.0000 O   0  0  0  0  0  0  0  0  0  0  0  0
   24.0379  -19.2596    0.0000 C   0  0  0  0  0  0  0  0  0  0  0  0
   25.2253  -19.9451    0.0000 C   0  0  0  0  0  0  0  0  0  0  0  0
   26.4165  -19.2571    0.0000 O   0  0  0  0  0  0  0  0  0  0  0  0
   25.2255  -21.3498    0.0000 O   0  0  0  0  0  0  0  0  0  0  0  0
   24.5313  -17.0264    0.0000 C   0  0  0  0  0  0  0  0  0  0  0  0
   24.5313  -18.4300    0.0000 C   0  0  0  0  0  0  0  0  0  0  0  0
   25.9349  -18.4300    0.0000 N   0  0  0  0  0  0  0  0  0  0  0  0
   25.9349  -17.0264    0.0000 C   0  0  0  0  0  0  0  0  0  0  0  0
   27.2683  -18.8510    0.0000 C   0  0  0  0  0  0  0  0  0  0  0  0
   28.1103  -17.7281    0.0000 C   0  0  0  0  0  0  0  0  0  0  0  0
   27.2683  -16.6053    0.0000 S   0  0  0  0  0  0  0  0  0  0  0  0
   29.0929  -18.7107    0.0000 C   0  0  0  0  0  0  0  0  0  0  0  0
   29.0929  -16.7456    0.0000 C   0  0  0  0  0  0  0  0  0  0  0  0
   27.7595  -20.1844    0.0000 C   0  0  0  0  0  0  0  0  0  0  0  0
   29.1630  -20.1844    0.0000 O   0  0  0  0  0  0  0  0  0  0  0  0
   26.9173  -21.3072    0.0000 O   0  0  0  0  0  0  0  0  0  0  0  0
   23.3383  -16.3246    0.0000 N   0  0  0  0  0  0  0  0  0  0  0  0
   22.1452  -17.0264    0.0000 C   0  0  0  0  0  0  0  0  0  0  0  0
   23.3383  -19.1317    0.0000 O   0  0  0  0  0  0  0  0  0  0  0  0
   22.1452  -18.4300    0.0000 O   0  0  0  0  0  0  0  0  0  0  0  0
   20.9268  -16.3295    0.0000 C   0  0  0  0  0  0  0  0  0  0  0  0
   19.7355  -17.0241    0.0000 C   0  0  0  0  0  0  0  0  0  0  0  0
   20.9268  -14.9295    0.0000 N   0  0  0  0  0  0  0  0  0  0  0  0
   18.5230  -16.3241    0.0000 C   0  0  0  0  0  0  0  0  0  0  0  0
   17.3106  -17.0241    0.0000 C   0  0  0  0  0  0  0  0  0  0  0  0
   17.3106  -18.4241    0.0000 C   0  0  0  0  0  0  0  0  0  0  0  0
   18.5230  -19.1241    0.0000 C   0  0  0  0  0  0  0  0  0  0  0  0
   19.7355  -18.4241    0.0000 C   0  0  0  0  0  0  0  0  0  0  0  0
   16.0891  -19.1295    0.0000 O   0  0  0  0  0  0  0  0  0  0  0  0
   34.0923  -18.2711    0.0000 O   0  0  0  0  0  0  0  0  0  0  0  0
   34.0923  -18.2711    0.0000 O   0  0  0  0  0  0  0  0  0  0  0  0
   34.0923  -18.2711    0.0000 O   0  0  0  0  0  0  0  0  0  0  0  0
   25.2700  -16.8000    0.0000 C   0  0  0  0  0  0  0  0  0  0  0  0
   25.2700  -18.2000    0.0000 C   0  0  0  0  0  0  0  0  0  0  0  0
   26.6700  -18.2000    0.0000 N   0  0  0  0  0  0  0  0  0  0  0  0
   26.6700  -16.8000    0.0000 C   0  0  0  0  0  0  0  0  0  0  0  0
   28.0000  -18.6200    0.0000 C   0  0  0  0  0  0  0  0  0  0  0  0
   28.8400  -17.5000    0.0000 C   0  0  0  0  0  0  0  0  0  0  0  0
   28.0000  -16.3800    0.0000 S   0  0  0  0  0  0  0  0  0  0  0  0
   29.8200  -18.4800    0.0000 C   0  0  0  0  0  0  0  0  0  0  0  0
   29.8200  -16.5200    0.0000 C   0  0  0  0  0  0  0  0  0  0  0  0
   28.4900  -20.0200    0.0000 C   0  0  0  0  0  0  0  0  0  0  0  0
   29.8900  -20.0200    0.0000 O   0  0  0  0  0  0  0  0  0  0  0  0
   27.6500  -21.1400    0.0000 O   0  0  0  0  0  0  0  0  0  0  0  0
   24.0800  -16.1000    0.0000 N   0  0  0  0  0  0  0  0  0  0  0  0
   22.8900  -16.8000    0.0000 C   0  0  0  0  0  0  0  0  0  0  0  0
   24.0800  -18.9000    0.0000 O   0  0  0  0  0  0  0  0  0  0  0  0
   22.8900  -18.2000    0.0000 O   0  0  0  0  0  0  0  0  0  0  0  0
   21.6300  -16.1000    0.0000 C   0  0  0  0  0  0  0  0  0  0  0  0
   20.4400  -16.8000    0.0000 C   0  0  0  0  0  0  0  0  0  0  0  0
   21.6300  -14.7000    0.0000 N   0  0  0  0  0  0  0  0  0  0  0  0
   19.2500  -16.1000    0.0000 C   0  0  0  0  0  0  0  0  0  0  0  0
   17.9900  -16.8000    0.0000 C   0  0  0  0  0  0  0  0  0  0  0  0
   17.9900  -18.2000    0.0000 C   0  0  0  0  0  0  0  0  0  0  0  0
   19.2500  -18.9000    0.0000 C   0  0  0  0  0  0  0  0  0  0  0  0
   20.4400  -18.2000    0.0000 C   0  0  0  0  0  0  0  0  0  0  0  0
   16.8000  -18.9000    0.0000 O   0  0  0  0  0  0  0  0  0  0  0  0
   24.1709  -17.2043    0.0000 C   0  0  0  0  0  0  0  0  0  0  0  0
   24.1709  -15.8400    0.0000 C   0  0  0  0  0  0  0  0  0  0  0  0
   22.9859  -17.8807    0.0000 C   0  0  0  0  0  0  0  0  0  0  0  0
   25.6666  -18.4812    0.0000 O   0  0  0  0  0  0  0  0  0  0  0  0
   22.9859  -15.1580    0.0000 C   0  0  0  0  0  0  0  0  0  0  0  0
   22.9859  -19.2450    0.0000 C   0  0  0  0  0  0  0  0  0  0  0  0
   21.9450  -16.9275    0.0000 C   0  0  0  0  0  0  0  0  0  0  0  0
   27.4458  -17.6943    0.0000 C   0  0  0  0  0  0  0  0  0  0  0  0
   22.9859  -13.7880    0.0000 C   0  0  0  0  0  0  0  0  0  0  0  0
   23.7258  -20.6034    0.0000 O   0  0  0  0  0  0  0  0  0  0  0  0
   21.8123  -19.9272    0.0000 C   0  0  0  0  0  0  0  0  0  0  0  0
   28.5906  -18.4120    0.0000 C   0  0  0  0  0  0  0  0  0  0  0  0
   27.4113  -16.3303    0.0000 O   0  0  0  0  0  0  0  0  0  0  0  0
   21.8123  -13.1116    0.0000 C   0  0  0  0  0  0  0  0  0  0  0  0
   24.1709  -13.1116    0.0000 C   0  0  0  0  0  0  0  0  0  0  0  0
   24.7548  -21.7190    0.0000 C   0  0  0  0  0  0  0  0  0  0  0  0
   20.6273  -19.2450    0.0000 C   0  0  0  0  0  0  0  0  0  0  0  0
   21.8123  -21.2912    0.0000 C   0  0  0  0  0  0  0  0  0  0  0  0
   29.7920  -17.7775    0.0000 C   0  0  0  0  0  0  0  0  0  0  0  0
   28.5500  -19.7801    0.0000 O   0  0  0  0  0  0  0  0  0  0  0  0
   28.6878  -15.6932    0.0000 C   0  0  0  0  0  0  0  0  0  0  0  0
   20.6273  -13.7880    0.0000 C   0  0  0  0  0  0  0  0  0  0  0  0
   21.8123  -11.7473    0.0000 O   0  0  0  0  0  0  0  0  0  0  0  0
   24.7548  -23.0776    0.0000 C   0  0  0  0  0  0  0  0  0  0  0  0
   25.9398  -21.0369    0.0000 O   0  0  0  0  0  0  0  0  0  0  0  0
   20.6273  -17.8807    0.0000 O   0  0  0  0  0  0  0  0  0  0  0  0
   19.5695  -20.1930    0.0000 O   0  0  0  0  0  0  0  0  0  0  0  0
   29.8379  -16.4196    0.0000 C   0  0  0  0  0  0  0  0  0  0  0  0
   28.7389  -14.3326    0.0000 C   0  0  0  0  0  0  0  0  0  0  0  0
   20.6273  -15.1580    0.0000 C   0  0  0  0  0  0  0  0  0  0  0  0
   19.4481  -13.1116    0.0000 C   0  0  0  0  0  0  0  0  0  0  0  0
   25.9398  -23.7654    0.0000 C   0  0  0  0  0  0  0  0  0  0  0  0
   27.1133  -21.7190    0.0000 C   0  0  0  0  0  0  0  0  0  0  0  0
   19.4481  -17.2043    0.0000 C   0  0  0  0  0  0  0  0  0  0  0  0
   19.4481  -15.8400    0.0000 C   0  0  0  0  0  0  0  0  0  0  0  0
   21.8123  -15.8400    0.0000 O   0  0  0  0  0  0  0  0  0  0  0  0
   27.1133  -23.0776    0.0000 C   0  0  0  0  0  0  0  0  0  0  0  0
   25.9398  -25.0892    0.0000 O   0  0  0  0  0  0  0  0  0  0  0  0
   28.2983  -21.0428    0.0000 C   0  0  0  0  0  0  0  0  0  0  0  0
   18.2688  -17.8807    0.0000 C   0  0  0  0  0  0  0  0  0  0  0  0
   18.1995  -16.4066    0.0000 C   0  0  0  0  0  0  0  0  0  0  0  0
   18.1995  -15.1522    0.0000 O   0  0  0  0  0  0  0  0  0  0  0  0
   28.2983  -23.7654    0.0000 O   0  0  0  0  0  0  0  0  0  0  0  0
   18.3035  -19.0021    0.0000 C   0  0  0  0  0  0  0  0  0  0  0  0
   25.3593  -16.5254    0.0000 C   0  0  0  0  0  0  0  0  0  0  0  0
   27.1615  -25.7951    0.0000 C   0  0  0  0  0  0  0  0  0  0  0  0
   24.7273  -24.4654    0.0000 C   0  0  0  0  0  0  0  0  0  0  0  0
   24.8709  -14.6276    0.0000 O   0  0  0  0  0  0  0  0  0  0  0  0
   26.2709  -14.6276    0.0000 C   0  0  0  0  0  0  0  0  0  0  0  0
   30.9997  -18.5339    0.0000 N   0  0  0  0  0  0  0  0  0  0  0  0
   32.2377  -17.8772    0.0000 C   0  0  0  0  0  0  0  0  0  0  0  0
   31.0187  -19.9487    0.0000 C   0  0  0  0  0  0  0  0  0  0  0  0
  1  2  2  0
  2  3  1  0
  3  4  2  0
  4  5  1  0
  5  6  2  0
  1  6  1  0
  4  7  1  0
  7  8  1  0
  7  9  2  0
  7 10  2  0
  8 11  1  0
 11 12  2  0
 12 13  1  0
 13 14  2  0
  8 14  1  0
 15 16  2  0
 16 17  1  0
 17 18  2  0
 18 19  1  0
 19 20  2  0
 15 20  1  0
 20 11  1  0
 19 21  1  0
 13 22  1  0
 22 23  1  0
 23 24  1  0
 25 26  1  0
 25 27  1  0
 25 28  2  0
 26 29  2  0
 29 30  1  0
 30 31  1  0
 30 32  2  0
 33 34  1  0
 34 35  1  0
 35 36  1  0
 33 36  1  0
 35 37  1  0
 37 38  1  0
 38 39  1  0
 36 39  1  1
 38 40  1  0
 38 41  1  0
 37 42  1  6
 42 43  1  0
 42 44  2  0
 33 45  1  1
 45 46  1  0
 34 47  2  0
 46 48  2  0
 46 49  1  0
 49 50  1  0
 49 51  1  1
 50 52  2  0
 52 53  1  0
 53 54  2  0
 54 55  1  0
 55 56  2  0
 50 56  1  0
 54 57  1  0
 61 62  1  0
 62 63  1  0
 63 64  1  0
 61 64  1  0
 63 65  1  0
 65 66  1  0
 66 67  1  0
 64 67  1  1
 66 68  1  0
 66 69  1  0
 65 70  1  6
 70 71  1  0
 70 72  2  0
 61 73  1  1
 73 74  1  0
 62 75  2  0
 74 76  2  0
 74 77  1  0
 77 78  1  0
 77 79  1  1
 78 80  2  0
 80 81  1  0
 81 82  2  0
 82 83  1  0
 83 84  2  0
 78 84  1  0
 82 85  1  0
 86 87  1  0
 86 88  1  0
 86 89  1  6
 87 90  1  0
 88 91  1  0
 88 92  1  6
 93 89  1  6
 90 94  1  0
 91 95  1  6
 91 96  1  0
 93 97  1  0
 93 98  1  0
 94 99  1  0
 94100  1  6
101 95  1  6
 96102  1  0
 96103  1  1
 97104  1  0
 97105  1  1
 98106  1  0
 99107  1  0
 99108  2  0
101109  1  0
101110  1  0
102111  1  0
102112  2  0
104113  1  0
106114  1  6
107115  1  0
107116  1  1
109117  1  0
110118  1  0
111119  1  0
115120  1  0
115121  1  1
117122  1  0
117123  1  0
118124  1  1
119125  1  6
120126  1  6
120127  1  0
122128  1  6
125129  1  0
106113  1  0
118122  1  0
119120  1  0
 87130  1  6
123131  1  0
117132  1  1
 87133  1  0
133134  1  0
104135  1  6
135136  1  0
135137  1  0
M  END
