 
     RDKit          2D

 32 33  0  0  1  0  0  0  0  0999 V2000
   16.8876  -17.1565    0.0000 C   0  0  0  0  0  0  0  0  0  0  0  0
   16.1956  -18.5404    0.0000 C   0  0  0  0  0  0  0  0  0  0  0  0
   16.1956  -19.7858    0.0000 C   0  0  0  0  0  0  0  0  0  0  0  0
   15.7113  -19.0939    0.0000 C   0  0  0  0  0  0  0  0  0  0  0  0
   17.9947  -19.0939    0.0000 C   0  0  0  0  0  0  0  0  0  0  0  0
   14.6042  -20.2010    0.0000 C   0  0  0  0  0  0  0  0  0  0  0  0
   17.3027  -20.8237    0.0000 C   0  0  0  0  0  0  0  0  0  0  0  0
   15.7113  -17.7793    0.0000 C   0  0  0  0  0  0  0  0  0  0  0  0
   16.8876  -19.7166    0.0000 C   0  0  0  0  0  0  0  0  0  0  0  0
   17.9947  -17.7793    0.0000 C   0  0  0  0  0  0  0  0  0  0  0  0
   16.8876  -15.8419    0.0000 N   0  0  0  0  0  0  0  0  0  0  0  0
   19.1890  -18.3949    0.0000 O   0  0  0  0  0  0  0  0  0  0  0  0
   18.0860  -15.1499    0.0000 C   0  0  0  0  0  0  0  0  0  0  0  0
   19.2677  -15.8324    0.0000 C   0  0  0  0  0  0  0  0  0  0  0  0
   19.2678  -17.2254    0.0000 O   0  0  0  0  0  0  0  0  0  0  0  0
   20.4413  -15.1547    0.0000 N   0  0  0  0  0  0  0  0  0  0  0  0
   20.8738  -16.4560    0.0000 C   0  0  0  0  0  0  0  0  0  0  0  0
   22.2327  -16.4309    0.0000 C   0  0  0  0  0  0  0  0  0  0  0  0
   22.6287  -15.1307    0.0000 C   0  0  0  0  0  0  0  0  0  0  0  0
   21.5145  -14.3523    0.0000 C   0  0  0  0  0  0  0  0  0  0  0  0
   21.4915  -12.9362    0.0000 C   0  0  0  0  0  0  0  0  0  0  0  0
   21.5178  -11.5519    0.0000 N   0  0  0  0  0  0  0  0  0  0  0  0
   25.2991  -19.3605    0.0000 C   0  0  0  0  0  0  0  0  0  0  0  0
   24.0935  -18.6673    0.0000 N   0  0  0  0  0  0  0  0  0  0  0  0
   26.5163  -18.6673    0.0000 N   0  0  0  0  0  0  0  0  0  0  0  0
   25.2991  -20.7640    0.0000 N   0  0  0  0  0  0  0  0  0  0  0  0
   22.8764  -19.3605    0.0000 C   0  0  0  0  0  0  0  0  0  0  0  0
   27.7278  -19.3605    0.0000 C   0  0  0  0  0  0  0  0  0  0  0  0
   26.5163  -17.2579    0.0000 C   0  0  0  0  0  0  0  0  0  0  0  0
   21.6649  -18.6673    0.0000 N   0  0  0  0  0  0  0  0  0  0  0  0
   22.8764  -20.7640    0.0000 N   0  0  0  0  0  0  0  0  0  0  0  0
   31.1135  -18.2132    0.0000 Cl  0  0  0  0  0  0  0  0  0  0  0  0
  1  2  1  0
  2  3  1  0
  8  4  1  0
  4  9  1  0
  9  5  1  0
  5 10  1  0
 10  1  1  0
  1  8  1  0
  3  6  1  0
  3  7  1  0
  4  6  1  0
  5  7  1  0
  1 11  1  0
  5 12  1  0
 11 13  1  0
 13 14  1  0
 14 15  2  0
 14 16  1  0
 16 17  1  0
 17 18  1  0
 18 19  1  0
 19 20  1  0
 16 20  1  0
 20 21  1  6
 21 22  3  0
 23 24  1  0
 23 25  1  0
 23 26  2  0
 24 27  1  0
 25 28  1  0
 25 29  1  0
 27 30  1  0
 27 31  2  0
M  END
