 
     RDKit          2D

174193  0  0  1  0  0  0  0  0999 V2000
   13.2300  -23.8000    0.0000 C   0  0  0  0  0  0  0  0  0  0  0  0
   11.9000  -24.2200    0.0000 N   0  0  0  0  0  0  0  0  0  0  0  0
   11.9000  -25.6200    0.0000 C   0  0  0  0  0  0  0  0  0  0  0  0
   13.2300  -26.0400    0.0000 C   0  0  0  0  0  0  0  0  0  0  0  0
   14.0700  -24.9200    0.0000 C   0  0  0  0  0  0  0  0  0  0  0  0
   14.9800  -20.5800    0.0000 C   0  0  0  0  0  0  0  0  0  0  0  0
   13.6500  -20.1600    0.0000 C   0  0  0  0  0  0  0  0  0  0  0  0
   12.8100  -21.3500    0.0000 N   0  0  0  0  0  0  0  0  0  0  0  0
   13.6500  -22.4700    0.0000 C   0  0  0  0  0  0  0  0  0  0  0  0
   14.9800  -22.0500    0.0000 N   0  0  0  0  0  0  0  0  0  0  0  0
   16.1000  -19.8800    0.0000 C   0  0  0  0  0  0  0  0  0  0  0  0
   17.2900  -20.5800    0.0000 C   0  0  0  0  0  0  0  0  0  0  0  0
   18.5500  -19.8800    0.0000 C   0  0  0  0  0  0  0  0  0  0  0  0
   18.5500  -18.4800    0.0000 C   0  0  0  0  0  0  0  0  0  0  0  0
   17.3600  -17.7800    0.0000 C   0  0  0  0  0  0  0  0  0  0  0  0
   16.1000  -18.4800    0.0000 C   0  0  0  0  0  0  0  0  0  0  0  0
   19.5300  -17.5700    0.0000 N   0  0  0  0  0  0  0  0  0  0  0  0
   18.9700  -16.3100    0.0000 C   0  0  0  0  0  0  0  0  0  0  0  0
   17.6400  -16.4500    0.0000 C   0  0  0  0  0  0  0  0  0  0  0  0
   20.9300  -17.7100    0.0000 C   0  0  0  0  0  0  0  0  0  0  0  0
   21.7700  -16.5900    0.0000 O   0  0  0  0  0  0  0  0  0  0  0  0
   21.2100  -15.3300    0.0000 C   0  0  0  0  0  0  0  0  0  0  0  0
   19.8100  -15.1200    0.0000 C   0  0  0  0  0  0  0  0  0  0  0  0
   22.0500  -14.1400    0.0000 C   0  0  0  0  0  0  0  0  0  0  0  0
   21.4900  -12.9500    0.0000 C   0  0  0  0  0  0  0  0  0  0  0  0
   20.0900  -12.8100    0.0000 C   0  0  0  0  0  0  0  0  0  0  0  0
   19.2500  -13.8600    0.0000 C   0  0  0  0  0  0  0  0  0  0  0  0
   21.4900  -18.9700    0.0000 C   0  0  0  0  0  0  0  0  0  0  0  0
   22.8900  -19.1100    0.0000 C   0  0  0  0  0  0  0  0  0  0  0  0
   20.7200  -20.0900    0.0000 C   0  0  0  0  0  0  0  0  0  0  0  0
   21.2800  -21.3500    0.0000 C   0  0  0  0  0  0  0  0  0  0  0  0
   22.6800  -21.5600    0.0000 C   0  0  0  0  0  0  0  0  0  0  0  0
   23.4500  -20.3700    0.0000 C   0  0  0  0  0  0  0  0  0  0  0  0
   22.4700  -11.9700    0.0000 C   0  0  0  0  0  0  0  0  0  0  0  0
   23.8700  -12.1800    0.0000 C   0  0  0  0  0  0  0  0  0  0  0  0
   24.5000  -10.9200    0.0000 N   0  0  0  0  0  0  0  0  0  0  0  0
   23.5200   -9.9400    0.0000 C   0  0  0  0  0  0  0  0  0  0  0  0
   22.2600  -10.5700    0.0000 N   0  0  0  0  0  0  0  0  0  0  0  0
   23.8700   -8.6100    0.0000 C   0  0  0  0  0  0  0  0  0  0  0  0
   25.1300   -8.0500    0.0000 N   0  0  0  0  0  0  0  0  0  0  0  0
   25.1300   -6.6500    0.0000 C   0  0  0  0  0  0  0  0  0  0  0  0
   23.7300   -6.3000    0.0000 C   0  0  0  0  0  0  0  0  0  0  0  0
   22.9600   -7.4900    0.0000 C   0  0  0  0  0  0  0  0  0  0  0  0
   10.7100  -23.5200    0.0000 C   0  0  0  0  0  0  0  0  0  0  0  0
    9.5200  -24.2200    0.0000 C   0  0  0  0  0  0  0  0  0  0  0  0
   10.7100  -22.1200    0.0000 O   0  0  0  0  0  0  0  0  0  0  0  0
    8.3300  -23.5200    0.0000 N   0  0  0  0  0  0  0  0  0  0  0  0
    9.5200  -25.6200    0.0000 C   0  0  0  0  0  0  0  0  0  0  0  0
   10.7100  -26.3200    0.0000 C   0  0  0  0  0  0  0  0  0  0  0  0
    8.3300  -26.3200    0.0000 C   0  0  0  0  0  0  0  0  0  0  0  0
    7.1400  -24.2200    0.0000 C   0  0  0  0  0  0  0  0  0  0  0  0
    5.9500  -23.5200    0.0000 O   0  0  0  0  0  0  0  0  0  0  0  0
    7.1400  -25.6200    0.0000 O   0  0  0  0  0  0  0  0  0  0  0  0
    5.9500  -26.3200    0.0000 C   0  0  0  0  0  0  0  0  0  0  0  0
   26.3200   -8.7500    0.0000 C   0  0  0  0  0  0  0  0  0  0  0  0
   27.5100   -8.0500    0.0000 C   0  0  0  0  0  0  0  0  0  0  0  0
   26.3200  -10.1500    0.0000 O   0  0  0  0  0  0  0  0  0  0  0  0
   28.7281   -8.7401    0.0000 N   0  0  0  0  0  0  0  0  0  0  0  0
   27.4986   -6.6500    0.0000 C   0  0  0  0  0  0  0  0  0  0  0  0
   26.2892   -5.9648    0.0000 C   0  0  0  0  0  0  0  0  0  0  0  0
   28.7138   -5.9352    0.0000 C   0  0  0  0  0  0  0  0  0  0  0  0
   29.9095   -8.0450    0.0000 C   0  0  0  0  0  0  0  0  0  0  0  0
   31.1149   -8.7280    0.0000 O   0  0  0  0  0  0  0  0  0  0  0  0
   29.8981   -6.6500    0.0000 O   0  0  0  0  0  0  0  0  0  0  0  0
   31.1083   -5.9603    0.0000 C   0  0  0  0  0  0  0  0  0  0  0  0
   54.7075  -16.5767    0.0000 O   0  0  0  0  0  0  0  0  0  0  0  0
   37.5744  -13.2196    0.0000 C   0  0  0  0  0  0  0  0  0  0  0  0
   37.5744  -14.6186    0.0000 C   0  0  0  0  0  0  0  0  0  0  0  0
   38.7636  -15.3181    0.0000 O   0  0  0  0  0  0  0  0  0  0  0  0
   40.0227  -13.2196    0.0000 C   0  0  0  0  0  0  0  0  0  0  0  0
   38.7636  -12.5201    0.0000 C   0  0  0  0  0  0  0  0  0  0  0  0
   42.4010  -13.2196    0.0000 C   0  0  0  0  0  0  0  0  0  0  0  0
   41.2118  -12.5201    0.0000 C   0  0  0  0  0  0  0  0  0  0  0  0
   43.6601  -15.3181    0.0000 O   0  0  0  0  0  0  0  0  0  0  0  0
   44.8493  -14.6186    0.0000 C   0  0  0  0  0  0  0  0  0  0  0  0
   44.8493  -13.2196    0.0000 C   0  0  0  0  0  0  0  0  0  0  0  0
   43.6601  -12.5201    0.0000 C   0  0  0  0  0  0  0  0  0  0  0  0
   46.0384  -15.3181    0.0000 N   0  0  0  0  0  0  0  0  0  0  0  0
   47.2975  -14.6186    0.0000 C   0  0  0  0  0  0  0  0  0  0  0  0
   47.2975  -13.2196    0.0000 C   0  0  0  0  0  0  0  0  0  0  0  0
   46.0384  -12.5201    0.0000 N   0  0  0  0  0  0  0  0  0  0  0  0
   48.4867  -15.3181    0.0000 C   0  0  0  0  0  0  0  0  0  0  0  0
   49.6759  -14.6186    0.0000 C   0  0  0  0  0  0  0  0  0  0  0  0
   49.6759  -13.2196    0.0000 C   0  0  0  0  0  0  0  0  0  0  0  0
   48.4867  -12.5201    0.0000 C   0  0  0  0  0  0  0  0  0  0  0  0
   36.3852  -13.9191    0.0000 C   0  0  0  0  0  0  0  0  0  0  0  0
   38.7636  -16.7171    0.0000 C   0  0  0  0  0  0  0  0  0  0  0  0
   37.5044  -17.4166    0.0000 O   0  0  0  0  0  0  0  0  0  0  0  0
   38.6936  -19.5151    0.0000 C   0  0  0  0  0  0  0  0  0  0  0  0
   39.9527  -18.8156    0.0000 C   0  0  0  0  0  0  0  0  0  0  0  0
   39.9527  -17.4166    0.0000 N   0  0  0  0  0  0  0  0  0  0  0  0
   37.5044  -18.8156    0.0000 C   0  0  0  0  0  0  0  0  0  0  0  0
   38.6936  -20.9141    0.0000 C   0  0  0  0  0  0  0  0  0  0  0  0
   37.5044  -20.2146    0.0000 C   0  0  0  0  0  0  0  0  0  0  0  0
   41.1419  -19.5151    0.0000 C   0  0  0  0  0  0  0  0  0  0  0  0
   41.1419  -20.9141    0.0000 O   0  0  0  0  0  0  0  0  0  0  0  0
   43.6601  -17.0669    0.0000 C   0  0  0  0  0  0  0  0  0  0  0  0
   42.3310  -17.4866    0.0000 C   0  0  0  0  0  0  0  0  0  0  0  0
   42.3310  -18.8856    0.0000 N   0  0  0  0  0  0  0  0  0  0  0  0
   43.6601  -19.3053    0.0000 C   0  0  0  0  0  0  0  0  0  0  0  0
   44.4995  -18.1861    0.0000 C   0  0  0  0  0  0  0  0  0  0  0  0
   50.8650  -15.3181    0.0000 O   0  0  0  0  0  0  0  0  0  0  0  0
   52.0542  -14.6186    0.0000 C   0  0  0  0  0  0  0  0  0  0  0  0
   47.3675  -20.0747    0.0000 C   0  0  0  0  0  0  0  0  0  0  0  0
   48.5567  -19.3752    0.0000 C   0  0  0  0  0  0  0  0  0  0  0  0
   49.7458  -20.1447    0.0000 N   0  0  0  0  0  0  0  0  0  0  0  0
   48.5567  -17.9063    0.0000 O   0  0  0  0  0  0  0  0  0  0  0  0
   46.6680  -21.2639    0.0000 C   0  0  0  0  0  0  0  0  0  0  0  0
   47.9971  -21.2639    0.0000 C   0  0  0  0  0  0  0  0  0  0  0  0
   51.1448  -19.4452    0.0000 S   0  0  0  0  0  0  0  0  0  0  0  0
   52.2901  -20.2698    0.0000 C   0  0  0  0  0  0  0  0  0  0  0  0
   51.7744  -18.2560    0.0000 O   0  0  0  0  0  0  0  0  0  0  0  0
   50.3754  -18.2560    0.0000 O   0  0  0  0  0  0  0  0  0  0  0  0
   52.9667  -21.4137    0.0000 C   0  0  0  0  0  0  0  0  0  0  0  0
   53.7655  -20.2910    0.0000 C   0  0  0  0  0  0  0  0  0  0  0  0
   44.8493  -20.0747    0.0000 C   0  0  0  0  0  0  0  0  0  0  0  0
   46.1783  -19.5151    0.0000 N   0  0  0  0  0  0  0  0  0  0  0  0
   44.8493  -21.4737    0.0000 O   0  0  0  0  0  0  0  0  0  0  0  0
   49.1862  -21.9634    0.0000 C   0  0  0  0  0  0  0  0  0  0  0  0
   50.3754  -21.2639    0.0000 C   0  0  0  0  0  0  0  0  0  0  0  0
   10.6505  -12.1920    0.0000 C   0  0  0  0  0  0  0  0  0  0  0  0
   10.6505  -13.5934    0.0000 C   0  0  0  0  0  0  0  0  0  0  0  0
   11.8417  -14.2941    0.0000 O   0  0  0  0  0  0  0  0  0  0  0  0
   13.1029  -12.1920    0.0000 C   0  0  0  0  0  0  0  0  0  0  0  0
   11.8417  -11.4914    0.0000 C   0  0  0  0  0  0  0  0  0  0  0  0
   15.4853  -12.1920    0.0000 C   0  0  0  0  0  0  0  0  0  0  0  0
   14.2941  -11.4914    0.0000 C   0  0  0  0  0  0  0  0  0  0  0  0
   16.7465  -14.2941    0.0000 O   0  0  0  0  0  0  0  0  0  0  0  0
   17.9377  -13.5934    0.0000 C   0  0  0  0  0  0  0  0  0  0  0  0
   17.9377  -12.1920    0.0000 C   0  0  0  0  0  0  0  0  0  0  0  0
   16.7465  -11.4914    0.0000 C   0  0  0  0  0  0  0  0  0  0  0  0
   19.1289  -14.2941    0.0000 N   0  0  0  0  0  0  0  0  0  0  0  0
   20.3901  -13.5934    0.0000 C   0  0  0  0  0  0  0  0  0  0  0  0
   20.3901  -12.1920    0.0000 C   0  0  0  0  0  0  0  0  0  0  0  0
   19.1289  -11.4914    0.0000 N   0  0  0  0  0  0  0  0  0  0  0  0
   21.5813  -14.2941    0.0000 C   0  0  0  0  0  0  0  0  0  0  0  0
   22.7725  -13.5934    0.0000 C   0  0  0  0  0  0  0  0  0  0  0  0
   22.7725  -12.1920    0.0000 C   0  0  0  0  0  0  0  0  0  0  0  0
   21.5813  -11.4914    0.0000 C   0  0  0  0  0  0  0  0  0  0  0  0
    9.4593  -12.8927    0.0000 C   0  0  0  0  0  0  0  0  0  0  0  0
   11.8417  -15.6955    0.0000 C   0  0  0  0  0  0  0  0  0  0  0  0
   10.5805  -16.3962    0.0000 O   0  0  0  0  0  0  0  0  0  0  0  0
   11.7716  -18.4983    0.0000 C   0  0  0  0  0  0  0  0  0  0  0  0
   13.0329  -17.7976    0.0000 C   0  0  0  0  0  0  0  0  0  0  0  0
   13.0329  -16.3962    0.0000 N   0  0  0  0  0  0  0  0  0  0  0  0
   10.5805  -17.7976    0.0000 C   0  0  0  0  0  0  0  0  0  0  0  0
   11.7716  -19.8997    0.0000 C   0  0  0  0  0  0  0  0  0  0  0  0
   10.5805  -19.1990    0.0000 C   0  0  0  0  0  0  0  0  0  0  0  0
   14.2241  -18.4983    0.0000 C   0  0  0  0  0  0  0  0  0  0  0  0
   14.2241  -19.8997    0.0000 O   0  0  0  0  0  0  0  0  0  0  0  0
   16.7465  -16.0459    0.0000 C   0  0  0  0  0  0  0  0  0  0  0  0
   15.4152  -16.4663    0.0000 C   0  0  0  0  0  0  0  0  0  0  0  0
   15.4152  -17.8677    0.0000 N   0  0  0  0  0  0  0  0  0  0  0  0
   16.7465  -18.2881    0.0000 C   0  0  0  0  0  0  0  0  0  0  0  0
   17.5874  -17.1670    0.0000 C   0  0  0  0  0  0  0  0  0  0  0  0
   23.9637  -14.2941    0.0000 O   0  0  0  0  0  0  0  0  0  0  0  0
   25.1549  -13.5934    0.0000 C   0  0  0  0  0  0  0  0  0  0  0  0
   20.4602  -19.0588    0.0000 C   0  0  0  0  0  0  0  0  0  0  0  0
   21.6514  -18.3581    0.0000 C   0  0  0  0  0  0  0  0  0  0  0  0
   22.8426  -19.1289    0.0000 N   0  0  0  0  0  0  0  0  0  0  0  0
   21.6514  -16.8867    0.0000 O   0  0  0  0  0  0  0  0  0  0  0  0
   19.7595  -20.1799    0.0000 C   0  0  0  0  0  0  0  0  0  0  0  0
   21.0908  -20.1799    0.0000 C   0  0  0  0  0  0  0  0  0  0  0  0
   24.2440  -18.4282    0.0000 S   0  0  0  0  0  0  0  0  0  0  0  0
   25.3651  -19.1990    0.0000 C   0  0  0  0  0  0  0  0  0  0  0  0
   24.8746  -17.2370    0.0000 O   0  0  0  0  0  0  0  0  0  0  0  0
   23.4732  -17.2370    0.0000 O   0  0  0  0  0  0  0  0  0  0  0  0
   26.0658  -20.3901    0.0000 C   0  0  0  0  0  0  0  0  0  0  0  0
   26.8365  -19.2690    0.0000 C   0  0  0  0  0  0  0  0  0  0  0  0
   17.9377  -19.0588    0.0000 C   0  0  0  0  0  0  0  0  0  0  0  0
   19.2690  -18.4983    0.0000 N   0  0  0  0  0  0  0  0  0  0  0  0
   17.9377  -20.3901    0.0000 O   0  0  0  0  0  0  0  0  0  0  0  0
   22.2820  -20.8806    0.0000 C   0  0  0  0  0  0  0  0  0  0  0  0
   23.4732  -20.1799    0.0000 C   0  0  0  0  0  0  0  0  0  0  0  0
  1  2  1  0
  2  3  1  0
  3  4  1  0
  4  5  1  0
  1  5  1  0
  6  7  2  0
  7  8  1  0
  8  9  2  0
  9 10  1  0
  6 10  1  0
  6 11  1  0
 11 12  2  0
 12 13  1  0
 13 14  2  0
 14 15  1  0
 15 16  2  0
 11 16  1  0
 14 17  1  0
 17 18  1  0
 18 19  2  0
 15 19  1  0
 17 20  1  0
 20 21  1  0
 21 22  1  0
 22 23  2  0
 18 23  1  0
 22 24  1  0
 24 25  2  0
 25 26  1  0
 26 27  2  0
 23 27  1  0
 28 29  2  0
 28 30  1  0
 30 31  2  0
 31 32  1  0
 32 33  2  0
 29 33  1  0
 20 28  1  1
 25 34  1  0
 34 35  1  0
 35 36  1  0
 36 37  2  0
 37 38  1  0
 34 38  2  0
  1  9  1  6
 39 40  1  0
 40 41  1  0
 41 42  1  0
 42 43  1  0
 39 43  1  0
 39 37  1  6
 44  2  1  0
 44 45  1  0
 44 46  2  0
 45 47  1  6
 45 48  1  0
 48 49  1  0
 48 50  1  0
 47 51  1  0
 51 52  2  0
 51 53  1  0
 53 54  1  0
 40 55  1  0
 55 56  1  0
 55 57  2  0
 56 58  1  6
 56 59  1  0
 59 60  1  0
 59 61  1  0
 58 62  1  0
 62 63  2  0
 62 64  1  0
 64 65  1  0
 67 68  1  0
 68 69  1  0
 70 71  1  0
 67 71  1  1
 72 73  1  0
 70 73  1  0
 74 75  1  0
 75 76  2  0
 76 77  1  0
 72 77  1  0
 75 78  1  0
 78 79  2  0
 79 80  1  0
 80 81  2  0
 76 81  1  0
 79 82  1  0
 82 83  2  0
 83 84  1  0
 84 85  2  0
 80 85  1  0
 68 86  1  6
 67 86  1  0
 69 87  1  0
 87 88  2  0
 90 89  1  6
 90 91  1  0
 87 91  1  0
 89 92  1  0
 89 93  1  0
 89 94  1  0
 90 95  1  0
 95 96  2  0
 97 74  1  0
 98 99  1  0
 99100  1  0
100101  1  0
 97101  1  6
 97 98  1  0
 95 99  1  0
 83102  1  0
102103  1  0
104105  1  0
105106  1  0
105107  2  0
104108  1  0
104109  1  0
108109  1  0
106110  1  0
110111  1  0
110112  2  0
110113  2  0
111114  1  0
111115  1  0
115114  1  0
116117  1  0
116118  2  0
104117  1  1
100116  1  1
109119  1  6
119120  2  0
121122  1  0
122123  1  0
124125  1  0
121125  1  1
126127  1  0
124127  1  0
128129  1  0
129130  2  0
130131  1  0
126131  1  0
129132  1  0
132133  2  0
133134  1  0
134135  2  0
130135  1  0
133136  1  0
136137  2  0
137138  1  0
138139  2  0
134139  1  0
122140  1  6
121140  1  0
123141  1  0
141142  2  0
144143  1  6
144145  1  0
141145  1  0
143146  1  0
143147  1  0
143148  1  0
144149  1  0
149150  2  0
151128  1  0
152153  1  0
153154  1  0
154155  1  0
151155  1  6
151152  1  0
149153  1  0
137156  1  0
156157  1  0
158159  1  0
159160  1  0
159161  2  0
158162  1  0
158163  1  0
162163  1  0
160164  1  0
164165  1  0
164166  2  0
164167  2  0
165168  1  0
165169  1  0
169168  1  0
170171  1  0
170172  2  0
158171  1  1
154170  1  1
163173  1  6
173174  2  0
M  END
