 
 
 
111120  0  0  0  0  0  0  0  0999 V2000
   10.7679  -12.1692    0.0000 C   0  0  0  0  0  0  0  0  0  0  0  0
   10.7679  -13.5679    0.0000 C   0  0  0  0  0  0  0  0  0  0  0  0
   12.0267  -14.2673    0.0000 C   0  0  0  0  0  0  0  0  0  0  0  0
   13.2157  -13.5679    0.0000 C   0  0  0  0  0  0  0  0  0  0  0  0
   13.2157  -12.1692    0.0000 C   0  0  0  0  0  0  0  0  0  0  0  0
   12.0267  -11.4698    0.0000 C   0  0  0  0  0  0  0  0  0  0  0  0
   14.4746  -14.3372    0.0000 C   0  0  0  0  0  0  0  0  0  0  0  0
   14.4746  -15.7360    0.0000 C   0  0  0  0  0  0  0  0  0  0  0  0
   15.6635  -16.4354    0.0000 C   0  0  0  0  0  0  0  0  0  0  0  0
   16.8525  -15.7360    0.0000 C   0  0  0  0  0  0  0  0  0  0  0  0
   16.8525  -14.3372    0.0000 N   0  0  0  0  0  0  0  0  0  0  0  0
   15.6635  -13.6379    0.0000 C   0  0  0  0  0  0  0  0  0  0  0  0
   12.0267  -15.7360    0.0000 C   0  0  0  0  0  0  0  0  0  0  0  0
   12.0267  -17.1348    0.0000 N   0  0  0  0  0  0  0  0  0  0  0  0
   18.1114  -13.6379    0.0000 C   0  0  0  0  0  0  0  0  0  0  0  0
   19.3003  -14.2673    0.0000 C   0  0  0  0  0  0  0  0  0  0  0  0
   20.4893  -13.5679    0.0000 C   0  0  0  0  0  0  0  0  0  0  0  0
   20.4893  -12.1692    0.0000 C   0  0  0  0  0  0  0  0  0  0  0  0
   19.3003  -11.4698    0.0000 C   0  0  0  0  0  0  0  0  0  0  0  0
   18.1114  -12.1692    0.0000 C   0  0  0  0  0  0  0  0  0  0  0  0
   15.6635  -17.8342    0.0000 C   0  0  0  0  0  0  0  0  0  0  0  0
   14.4746  -18.4636    0.0000 N   0  0  0  0  0  0  0  0  0  0  0  0
   14.4746  -19.8624    0.0000 C   0  0  0  0  0  0  0  0  0  0  0  0
   15.6635  -20.5618    0.0000 C   0  0  0  0  0  0  0  0  0  0  0  0
   16.8525  -19.9323    0.0000 C   0  0  0  0  0  0  0  0  0  0  0  0
   16.8525  -18.5335    0.0000 C   0  0  0  0  0  0  0  0  0  0  0  0
   15.6635  -12.1692    0.0000 O   0  0  0  0  0  0  0  0  0  0  0  0
   25.6900  -16.6600    0.0000 O   0  0  0  0  0  0  0  0  0  0  0  0
   10.7679  -12.1692    0.0000 C   0  0  0  0  0  0  0  0  0  0  0  0
   10.7679  -13.5679    0.0000 C   0  0  0  0  0  0  0  0  0  0  0  0
   12.0267  -14.2673    0.0000 C   0  0  0  0  0  0  0  0  0  0  0  0
   13.2157  -13.5679    0.0000 C   0  0  0  0  0  0  0  0  0  0  0  0
   13.2157  -12.1692    0.0000 C   0  0  0  0  0  0  0  0  0  0  0  0
   12.0267  -11.4698    0.0000 C   0  0  0  0  0  0  0  0  0  0  0  0
   14.4746  -14.3372    0.0000 C   0  0  0  0  0  0  0  0  0  0  0  0
   14.4746  -15.7360    0.0000 C   0  0  0  0  0  0  0  0  0  0  0  0
   15.6635  -16.4354    0.0000 C   0  0  0  0  0  0  0  0  0  0  0  0
   16.8525  -15.7360    0.0000 C   0  0  0  0  0  0  0  0  0  0  0  0
   16.8525  -14.3372    0.0000 N   0  0  0  0  0  0  0  0  0  0  0  0
   15.6635  -13.6379    0.0000 C   0  0  0  0  0  0  0  0  0  0  0  0
   15.6635  -12.1692    0.0000 O   0  0  0  0  0  0  0  0  0  0  0  0
   18.1114  -13.6379    0.0000 C   0  0  0  0  0  0  0  0  0  0  0  0
   19.3003  -14.2673    0.0000 C   0  0  0  0  0  0  0  0  0  0  0  0
   20.4893  -13.5679    0.0000 C   0  0  0  0  0  0  0  0  0  0  0  0
   20.4893  -12.1692    0.0000 C   0  0  0  0  0  0  0  0  0  0  0  0
   19.3003  -11.4698    0.0000 C   0  0  0  0  0  0  0  0  0  0  0  0
   18.1114  -12.1692    0.0000 C   0  0  0  0  0  0  0  0  0  0  0  0
   15.6635  -17.8342    0.0000 C   0  0  0  0  0  0  0  0  0  0  0  0
   14.4746  -18.4636    0.0000 N   0  0  0  0  0  0  0  0  0  0  0  0
   14.4746  -19.8624    0.0000 C   0  0  0  0  0  0  0  0  0  0  0  0
   15.6635  -20.5618    0.0000 C   0  0  0  0  0  0  0  0  0  0  0  0
   16.8525  -19.9323    0.0000 C   0  0  0  0  0  0  0  0  0  0  0  0
   16.8525  -18.5335    0.0000 C   0  0  0  0  0  0  0  0  0  0  0  0
   12.0267  -15.7360    0.0000 C   0  0  0  0  0  0  0  0  0  0  0  0
   12.0267  -17.1348    0.0000 N   0  0  0  0  0  0  0  0  0  0  0  0
   10.7679  -12.1692    0.0000 C   0  0  0  0  0  0  0  0  0  0  0  0
   10.7679  -13.5679    0.0000 C   0  0  0  0  0  0  0  0  0  0  0  0
   12.0267  -14.2673    0.0000 C   0  0  0  0  0  0  0  0  0  0  0  0
   13.2157  -13.5679    0.0000 C   0  0  0  0  0  0  0  0  0  0  0  0
   13.2157  -12.1692    0.0000 C   0  0  0  0  0  0  0  0  0  0  0  0
   12.0267  -11.4698    0.0000 C   0  0  0  0  0  0  0  0  0  0  0  0
   14.4746  -14.3372    0.0000 C   0  0  0  0  0  0  0  0  0  0  0  0
   14.4746  -15.7360    0.0000 C   0  0  0  0  0  0  0  0  0  0  0  0
   15.6635  -16.4354    0.0000 C   0  0  0  0  0  0  0  0  0  0  0  0
   16.8525  -15.7360    0.0000 C   0  0  0  0  0  0  0  0  0  0  0  0
   16.8525  -14.3372    0.0000 N   0  0  0  0  0  0  0  0  0  0  0  0
   15.6635  -13.6379    0.0000 C   0  0  0  0  0  0  0  0  0  0  0  0
   15.6635  -12.1692    0.0000 O   0  0  0  0  0  0  0  0  0  0  0  0
   18.1114  -13.6379    0.0000 C   0  0  0  0  0  0  0  0  0  0  0  0
   19.3003  -14.2673    0.0000 C   0  0  0  0  0  0  0  0  0  0  0  0
   20.4893  -13.5679    0.0000 C   0  0  0  0  0  0  0  0  0  0  0  0
   20.4893  -12.1692    0.0000 C   0  0  0  0  0  0  0  0  0  0  0  0
   19.3003  -11.4698    0.0000 C   0  0  0  0  0  0  0  0  0  0  0  0
   18.1114  -12.1692    0.0000 C   0  0  0  0  0  0  0  0  0  0  0  0
   15.6635  -17.8342    0.0000 C   0  0  0  0  0  0  0  0  0  0  0  0
   14.4746  -18.4636    0.0000 N   0  0  0  0  0  0  0  0  0  0  0  0
   14.4746  -19.8624    0.0000 C   0  0  0  0  0  0  0  0  0  0  0  0
   15.6635  -20.5618    0.0000 C   0  0  0  0  0  0  0  0  0  0  0  0
   16.8525  -19.9323    0.0000 C   0  0  0  0  0  0  0  0  0  0  0  0
   16.8525  -18.5335    0.0000 C   0  0  0  0  0  0  0  0  0  0  0  0
   12.0267  -15.7360    0.0000 C   0  0  0  0  0  0  0  0  0  0  0  0
   12.0267  -17.1348    0.0000 N   0  0  0  0  0  0  0  0  0  0  0  0
   10.7679  -12.1692    0.0000 C   0  0  0  0  0  0  0  0  0  0  0  0
   10.7679  -13.5679    0.0000 C   0  0  0  0  0  0  0  0  0  0  0  0
   12.0267  -14.2673    0.0000 C   0  0  0  0  0  0  0  0  0  0  0  0
   13.2157  -13.5679    0.0000 C   0  0  0  0  0  0  0  0  0  0  0  0
   13.2157  -12.1692    0.0000 C   0  0  0  0  0  0  0  0  0  0  0  0
   12.0267  -11.4698    0.0000 C   0  0  0  0  0  0  0  0  0  0  0  0
   14.4746  -14.3372    0.0000 C   0  0  0  0  0  0  0  0  0  0  0  0
   14.4746  -15.7360    0.0000 C   0  0  0  0  0  0  0  0  0  0  0  0
   15.6635  -16.4354    0.0000 C   0  0  0  0  0  0  0  0  0  0  0  0
   16.8525  -15.7360    0.0000 C   0  0  0  0  0  0  0  0  0  0  0  0
   16.8525  -14.3372    0.0000 N   0  0  0  0  0  0  0  0  0  0  0  0
   15.6635  -13.6379    0.0000 C   0  0  0  0  0  0  0  0  0  0  0  0
   15.6635  -12.1692    0.0000 O   0  0  0  0  0  0  0  0  0  0  0  0
   18.1114  -13.6379    0.0000 C   0  0  0  0  0  0  0  0  0  0  0  0
   19.3003  -14.2673    0.0000 C   0  0  0  0  0  0  0  0  0  0  0  0
   20.4893  -13.5679    0.0000 C   0  0  0  0  0  0  0  0  0  0  0  0
   20.4893  -12.1692    0.0000 C   0  0  0  0  0  0  0  0  0  0  0  0
   19.3003  -11.4698    0.0000 C   0  0  0  0  0  0  0  0  0  0  0  0
   18.1114  -12.1692    0.0000 C   0  0  0  0  0  0  0  0  0  0  0  0
   15.6635  -17.8342    0.0000 C   0  0  0  0  0  0  0  0  0  0  0  0
   14.4746  -18.4636    0.0000 N   0  0  0  0  0  0  0  0  0  0  0  0
   14.4746  -19.8624    0.0000 C   0  0  0  0  0  0  0  0  0  0  0  0
   15.6635  -20.5618    0.0000 C   0  0  0  0  0  0  0  0  0  0  0  0
   16.8525  -19.9323    0.0000 C   0  0  0  0  0  0  0  0  0  0  0  0
   16.8525  -18.5335    0.0000 C   0  0  0  0  0  0  0  0  0  0  0  0
   12.0267  -15.7360    0.0000 C   0  0  0  0  0  0  0  0  0  0  0  0
   12.0267  -17.1348    0.0000 N   0  0  0  0  0  0  0  0  0  0  0  0
   25.6900  -16.6600    0.0000 O   0  0  0  0  0  0  0  0  0  0  0  0
   25.6900  -16.6600    0.0000 O   0  0  0  0  0  0  0  0  0  0  0  0
  1  2  2  0     0  0
  2  3  1  0     0  0
  3  4  2  0     0  0
  4  5  1  0     0  0
  5  6  2  0     0  0
  1  6  1  0     0  0
  4  7  1  0     0  0
  7  8  2  0     0  0
  8  9  1  0     0  0
  9 10  2  0     0  0
 10 11  1  0     0  0
 11 12  1  0     0  0
  7 12  1  0     0  0
  3 13  1  0     0  0
 13 14  3  0     0  0
 11 15  1  0     0  0
 15 16  2  0     0  0
 16 17  1  0     0  0
 17 18  2  0     0  0
 18 19  1  0     0  0
 19 20  2  0     0  0
 15 20  1  0     0  0
  9 21  1  0     0  0
 21 22  2  0     0  0
 22 23  1  0     0  0
 23 24  2  0     0  0
 24 25  1  0     0  0
 25 26  2  0     0  0
 21 26  1  0     0  0
 12 27  2  0     0  0
 29 30  2  0     0  0
 30 31  1  0     0  0
 31 32  2  0     0  0
 32 33  1  0     0  0
 33 34  2  0     0  0
 29 34  1  0     0  0
 32 35  1  0     0  0
 35 36  2  0     0  0
 36 37  1  0     0  0
 37 38  2  0     0  0
 38 39  1  0     0  0
 39 40  1  0     0  0
 35 40  1  0     0  0
 31 54  1  0     0  0
 54 55  3  0     0  0
 39 42  1  0     0  0
 42 43  2  0     0  0
 43 44  1  0     0  0
 44 45  2  0     0  0
 45 46  1  0     0  0
 46 47  2  0     0  0
 42 47  1  0     0  0
 37 48  1  0     0  0
 48 49  2  0     0  0
 49 50  1  0     0  0
 50 51  2  0     0  0
 51 52  1  0     0  0
 52 53  2  0     0  0
 48 53  1  0     0  0
 40 41  2  0     0  0
 56 57  2  0     0  0
 57 58  1  0     0  0
 58 59  2  0     0  0
 59 60  1  0     0  0
 60 61  2  0     0  0
 56 61  1  0     0  0
 59 62  1  0     0  0
 62 63  2  0     0  0
 63 64  1  0     0  0
 64 65  2  0     0  0
 65 66  1  0     0  0
 66 67  1  0     0  0
 62 67  1  0     0  0
 58 81  1  0     0  0
 81 82  3  0     0  0
 66 69  1  0     0  0
 69 70  2  0     0  0
 70 71  1  0     0  0
 71 72  2  0     0  0
 72 73  1  0     0  0
 73 74  2  0     0  0
 69 74  1  0     0  0
 64 75  1  0     0  0
 75 76  2  0     0  0
 76 77  1  0     0  0
 77 78  2  0     0  0
 78 79  1  0     0  0
 79 80  2  0     0  0
 75 80  1  0     0  0
 67 68  2  0     0  0
 83 84  2  0     0  0
 84 85  1  0     0  0
 85 86  2  0     0  0
 86 87  1  0     0  0
 87 88  2  0     0  0
 83 88  1  0     0  0
 86 89  1  0     0  0
 89 90  2  0     0  0
 90 91  1  0     0  0
 91 92  2  0     0  0
 92 93  1  0     0  0
 93 94  1  0     0  0
 89 94  1  0     0  0
 85108  1  0     0  0
108109  3  0     0  0
 93 96  1  0     0  0
 96 97  2  0     0  0
 97 98  1  0     0  0
 98 99  2  0     0  0
 99100  1  0     0  0
100101  2  0     0  0
 96101  1  0     0  0
 91102  1  0     0  0
102103  2  0     0  0
103104  1  0     0  0
104105  2  0     0  0
105106  1  0     0  0
106107  2  0     0  0
102107  1  0     0  0
 94 95  2  0     0  0
M  STY  2   1 MUL   2 MUL
M  SLB  2   1   1   2   2
M  SCN  2   1 HT    2 HT 
M  SAL   1 15   1   2   3   4   5   6   7   8   9  10  11  12  13  14  15
M  SAL   1 15  16  17  18  19  20  21  22  23  24  25  26  27  29  30  31
M  SAL   1 15  32  33  34  35  36  37  38  39  40  41  42  43  44  45  46
M  SAL   1 15  47  48  49  50  51  52  53  54  55  56  57  58  59  60  61
M  SAL   1 15  62  63  64  65  66  67  68  69  70  71  72  73  74  75  76
M  SAL   1 15  77  78  79  80  81  82  83  84  85  86  87  88  89  90  91
M  SAL   1 15  92  93  94  95  96  97  98  99 100 101 102 103 104 105 106
M  SAL   1  3 107 108 109
M  SPA   1 15   1   2   3   4   5   6   7   8   9  10  11  12  27  15  16
M  SPA   1 12  17  18  19  20  21  22  23  24  25  26  13  14
M  SDI   1  4   10.0800  -21.0700   10.0800  -10.8500
M  SDI   1  4   20.9300  -10.8500   20.9300  -21.0700
M  SMT   1 4
M  SAL   2  3  28 110 111
M  SPA   2  1  28
M  SDI   2  4   23.5200  -17.6400   23.5200  -15.5400
M  SDI   2  4   26.6700  -15.5400   26.6700  -17.6400
M  SMT   2 3
M  END
