 
     RDKit          2D

180189  0  0  1  0  0  0  0  0999 V2000
   25.0103  -17.6390    0.0000 N   0  0  0  0  0  0  0  0  0  0  0  0
   23.6350  -18.1111    0.0000 C   0  0  0  0  0  0  0  0  0  0  0  0
   21.3970  -18.1111    0.0000 C   0  0  0  0  0  0  0  0  0  0  0  0
   20.1381  -17.4117    0.0000 C   0  0  0  0  0  0  0  0  0  0  0  0
   18.9492  -18.1111    0.0000 O   0  0  0  0  0  0  0  0  0  0  0  0
   21.8166  -19.4399    0.0000 S   0  0  0  0  0  0  0  0  0  0  0  0
   22.5160  -17.2718    0.0000 O   0  0  0  0  0  0  0  0  0  0  0  0
   23.2154  -19.4399    0.0000 C   0  0  0  0  0  0  0  0  0  0  0  0
   25.0206  -16.2402    0.0000 C   0  0  0  0  0  0  0  0  0  0  0  0
   26.2146  -15.5496    0.0000 C   0  0  0  0  0  0  0  0  0  0  0  0
   27.4684  -16.2582    0.0000 C   0  0  0  0  0  0  0  0  0  0  0  0
   27.4581  -17.6570    0.0000 N   0  0  0  0  0  0  0  0  0  0  0  0
   26.2641  -18.3476    0.0000 C   0  0  0  0  0  0  0  0  0  0  0  0
   28.6624  -15.5676    0.0000 N   0  0  0  0  0  0  0  0  0  0  0  0
   26.1549  -14.1509    0.0000 F   0  0  0  0  0  0  0  0  0  0  0  0
   26.2538  -19.7463    0.0000 O   0  0  0  0  0  0  0  0  0  0  0  0
   25.2700  -26.3900    0.0000 C   0  0  0  0  0  0  0  0  0  0  0  0
   25.2700  -27.7900    0.0000 C   0  0  0  0  0  0  0  0  0  0  0  0
   26.4600  -28.4900    0.0000 C   0  0  0  0  0  0  0  0  0  0  0  0
   27.7200  -27.7900    0.0000 C   0  0  0  0  0  0  0  0  0  0  0  0
   27.7200  -26.3900    0.0000 C   0  0  0  0  0  0  0  0  0  0  0  0
   26.4600  -25.6900    0.0000 C   0  0  0  0  0  0  0  0  0  0  0  0
   28.9100  -28.4900    0.0000 N   0  0  0  0  0  0  0  0  0  0  0  0
   30.1700  -27.7900    0.0000 C   0  0  0  0  0  0  0  0  0  0  0  0
   31.2900  -28.4900    0.0000 N   0  0  0  0  0  0  0  0  0  0  0  0
   32.5500  -27.7900    0.0000 C   0  0  0  0  0  0  0  0  0  0  0  0
   32.5500  -26.3900    0.0000 N   0  0  0  0  0  0  0  0  0  0  0  0
   31.3600  -25.6900    0.0000 C   0  0  0  0  0  0  0  0  0  0  0  0
   30.1700  -26.3900    0.0000 C   0  0  0  0  0  0  0  0  0  0  0  0
   33.8100  -28.4900    0.0000 N   0  0  0  0  0  0  0  0  0  0  0  0
   35.0000  -27.7900    0.0000 C   0  0  0  0  0  0  0  0  0  0  0  0
   36.1900  -28.4900    0.0000 C   0  0  0  0  0  0  0  0  0  0  0  0
   37.3800  -27.7900    0.0000 C   0  0  0  0  0  0  0  0  0  0  0  0
   37.3800  -26.3900    0.0000 C   0  0  0  0  0  0  0  0  0  0  0  0
   36.1900  -25.6900    0.0000 C   0  0  0  0  0  0  0  0  0  0  0  0
   35.0000  -26.3900    0.0000 C   0  0  0  0  0  0  0  0  0  0  0  0
   28.9100  -25.6900    0.0000 C   0  0  0  0  0  0  0  0  0  0  0  0
   38.6400  -25.6900    0.0000 C   0  0  0  0  0  0  0  0  0  0  0  0
   39.8300  -24.9900    0.0000 N   0  0  0  0  0  0  0  0  0  0  0  0
   24.0800  -25.6900    0.0000 C   0  0  0  0  0  0  0  0  0  0  0  0
   22.8200  -26.3900    0.0000 C   0  0  0  0  0  0  0  0  0  0  0  0
   21.6300  -25.6900    0.0000 C   0  0  0  0  0  0  0  0  0  0  0  0
   20.4400  -24.9900    0.0000 N   0  0  0  0  0  0  0  0  0  0  0  0
   26.4600  -29.8900    0.0000 C   0  0  0  0  0  0  0  0  0  0  0  0
   39.9000  -29.3300    0.0000 Cl  0  0  0  0  0  0  0  0  0  0  0  0
   22.1900  -21.7700    0.0000 C   0  0  0  0  0  0  0  0  0  0  0  0
   22.1900  -23.1700    0.0000 C   0  0  0  0  0  0  0  0  0  0  0  0
   23.4024  -23.8700    0.0000 C   0  0  0  0  0  0  0  0  0  0  0  0
   24.6149  -23.1700    0.0000 C   0  0  0  0  0  0  0  0  0  0  0  0
   24.6149  -21.7700    0.0000 C   0  0  0  0  0  0  0  0  0  0  0  0
   23.4024  -21.0700    0.0000 C   0  0  0  0  0  0  0  0  0  0  0  0
   25.8460  -23.8810    0.0000 N   0  0  0  0  0  0  0  0  0  0  0  0
   27.0512  -23.1853    0.0000 C   0  0  0  0  0  0  0  0  0  0  0  0
   28.2335  -23.8681    0.0000 N   0  0  0  0  0  0  0  0  0  0  0  0
   29.4460  -23.1683    0.0000 C   0  0  0  0  0  0  0  0  0  0  0  0
   29.4462  -21.7683    0.0000 N   0  0  0  0  0  0  0  0  0  0  0  0
   28.2638  -21.0855    0.0000 C   0  0  0  0  0  0  0  0  0  0  0  0
   27.0513  -21.7853    0.0000 C   0  0  0  0  0  0  0  0  0  0  0  0
   30.6770  -23.8793    0.0000 N   0  0  0  0  0  0  0  0  0  0  0  0
   31.8807  -23.1846    0.0000 C   0  0  0  0  0  0  0  0  0  0  0  0
   33.0637  -23.8678    0.0000 C   0  0  0  0  0  0  0  0  0  0  0  0
   34.2762  -23.1681    0.0000 C   0  0  0  0  0  0  0  0  0  0  0  0
   34.2765  -21.7681    0.0000 C   0  0  0  0  0  0  0  0  0  0  0  0
   33.0935  -21.0848    0.0000 C   0  0  0  0  0  0  0  0  0  0  0  0
   31.8810  -21.7846    0.0000 C   0  0  0  0  0  0  0  0  0  0  0  0
   25.8460  -21.0590    0.0000 C   0  0  0  0  0  0  0  0  0  0  0  0
   35.5057  -21.0585    0.0000 C   0  0  0  0  0  0  0  0  0  0  0  0
   36.7181  -20.3585    0.0000 N   0  0  0  0  0  0  0  0  0  0  0  0
   20.9776  -21.0700    0.0000 C   0  0  0  0  0  0  0  0  0  0  0  0
   19.7821  -21.7604    0.0000 C   0  0  0  0  0  0  0  0  0  0  0  0
   18.5947  -21.0749    0.0000 C   0  0  0  0  0  0  0  0  0  0  0  0
   17.3823  -20.3749    0.0000 N   0  0  0  0  0  0  0  0  0  0  0  0
   23.4024  -25.2698    0.0000 C   0  0  0  0  0  0  0  0  0  0  0  0
   28.2100  -13.7900    0.0000 N   0  0  0  0  0  0  0  0  0  0  0  0
   28.2100  -15.2600    0.0000 C   0  0  0  0  0  0  0  0  0  0  0  0
   27.0200  -15.9600    0.0000 N   0  0  0  0  0  0  0  0  0  0  0  0
   25.8300  -15.2600    0.0000 C   0  0  0  0  0  0  0  0  0  0  0  0
   25.8300  -13.7900    0.0000 C   0  0  0  0  0  0  0  0  0  0  0  0
   27.0200  -13.0900    0.0000 C   0  0  0  0  0  0  0  0  0  0  0  0
   24.5000  -15.6800    0.0000 N   0  0  0  0  0  0  0  0  0  0  0  0
   23.7300  -14.5600    0.0000 C   0  0  0  0  0  0  0  0  0  0  0  0
   24.5000  -13.3700    0.0000 N   0  0  0  0  0  0  0  0  0  0  0  0
   27.0200  -11.7600    0.0000 N   0  0  0  0  0  0  0  0  0  0  0  0
   24.5000  -17.0800    0.0000 C   0  0  0  0  0  0  0  0  0  0  0  0
   23.3100  -17.7800    0.0000 C   0  0  0  0  0  0  0  0  0  0  0  0
   22.0500  -17.0800    0.0000 O   0  0  0  0  0  0  0  0  0  0  0  0
   21.0000  -17.7800    0.0000 C   0  0  0  0  0  0  0  0  0  0  0  0
   19.7400  -17.0800    0.0000 P   0  0  0  0  0  0  0  0  0  0  0  0
   23.3100  -19.1100    0.0000 C   0  0  0  0  0  0  0  0  0  0  0  0
   18.4800  -16.3800    0.0000 O   0  0  0  0  0  0  0  0  0  0  0  0
   20.4400  -15.8200    0.0000 O   0  0  0  0  0  0  0  0  0  0  0  0
   18.6200  -18.2700    0.0000 N   0  0  0  0  0  0  0  0  0  0  0  0
   17.0800  -16.3800    0.0000 C   0  0  0  0  0  0  0  0  0  0  0  0
   16.3800  -15.1900    0.0000 C   0  0  0  0  0  0  0  0  0  0  0  0
   14.9800  -15.1900    0.0000 C   0  0  0  0  0  0  0  0  0  0  0  0
   14.2800  -16.3800    0.0000 C   0  0  0  0  0  0  0  0  0  0  0  0
   14.9800  -17.5700    0.0000 C   0  0  0  0  0  0  0  0  0  0  0  0
   16.3800  -17.5700    0.0000 C   0  0  0  0  0  0  0  0  0  0  0  0
   18.6200  -19.6700    0.0000 C   0  0  0  0  0  0  0  0  0  0  0  0
   17.4300  -20.3700    0.0000 C   0  0  0  0  0  0  0  0  0  0  0  0
   19.8100  -20.3700    0.0000 C   0  0  0  0  0  0  0  0  0  0  0  0
   16.2400  -19.6700    0.0000 O   0  0  0  0  0  0  0  0  0  0  0  0
   17.4300  -21.7700    0.0000 O   0  0  0  0  0  0  0  0  0  0  0  0
   15.0500  -20.3700    0.0000 C   0  0  0  0  0  0  0  0  0  0  0  0
   13.8600  -19.6700    0.0000 C   0  0  0  0  0  0  0  0  0  0  0  0
   15.0500  -21.7700    0.0000 C   0  0  0  0  0  0  0  0  0  0  0  0
   34.5800  -17.5000    0.0000 C   0  0  0  0  0  0  0  0  0  0  0  0
   35.7924  -18.2000    0.0000 C   0  0  0  0  0  0  0  0  0  0  0  0
   33.3676  -18.2000    0.0000 O   0  0  0  0  0  0  0  0  0  0  0  0
   34.5800  -16.1000    0.0000 O   0  0  0  0  0  0  0  0  0  0  0  0
   36.9879  -17.5096    0.0000 C   0  0  0  0  0  0  0  0  0  0  0  0
   38.1753  -18.1951    0.0000 C   0  0  0  0  0  0  0  0  0  0  0  0
   39.3665  -17.5071    0.0000 O   0  0  0  0  0  0  0  0  0  0  0  0
   38.1755  -19.5998    0.0000 O   0  0  0  0  0  0  0  0  0  0  0  0
   28.2100  -13.7900    0.0000 N   0  0  0  0  0  0  0  0  0  0  0  0
   28.2100  -15.2600    0.0000 C   0  0  0  0  0  0  0  0  0  0  0  0
   27.0200  -15.9600    0.0000 N   0  0  0  0  0  0  0  0  0  0  0  0
   25.8300  -15.2600    0.0000 C   0  0  0  0  0  0  0  0  0  0  0  0
   25.8300  -13.7900    0.0000 C   0  0  0  0  0  0  0  0  0  0  0  0
   27.0200  -13.0900    0.0000 C   0  0  0  0  0  0  0  0  0  0  0  0
   27.0200  -11.7600    0.0000 N   0  0  0  0  0  0  0  0  0  0  0  0
   24.5000  -13.3700    0.0000 N   0  0  0  0  0  0  0  0  0  0  0  0
   23.7300  -14.5600    0.0000 C   0  0  0  0  0  0  0  0  0  0  0  0
   24.5000  -15.6800    0.0000 N   0  0  0  0  0  0  0  0  0  0  0  0
   24.5000  -17.0800    0.0000 C   0  0  0  0  0  0  0  0  0  0  0  0
   23.3100  -17.7800    0.0000 C   0  0  0  0  0  0  0  0  0  0  0  0
   22.0500  -17.0800    0.0000 O   0  0  0  0  0  0  0  0  0  0  0  0
   21.0000  -17.7800    0.0000 C   0  0  0  0  0  0  0  0  0  0  0  0
   19.7400  -17.0800    0.0000 P   0  0  0  0  0  0  0  0  0  0  0  0
   18.4800  -16.3800    0.0000 O   0  0  0  0  0  0  0  0  0  0  0  0
   17.0800  -16.3800    0.0000 C   0  0  0  0  0  0  0  0  0  0  0  0
   16.3800  -15.1900    0.0000 C   0  0  0  0  0  0  0  0  0  0  0  0
   14.9800  -15.1900    0.0000 C   0  0  0  0  0  0  0  0  0  0  0  0
   14.2800  -16.3800    0.0000 C   0  0  0  0  0  0  0  0  0  0  0  0
   14.9800  -17.5700    0.0000 C   0  0  0  0  0  0  0  0  0  0  0  0
   16.3800  -17.5700    0.0000 C   0  0  0  0  0  0  0  0  0  0  0  0
   20.4400  -15.8200    0.0000 O   0  0  0  0  0  0  0  0  0  0  0  0
   18.6200  -18.2700    0.0000 N   0  0  0  0  0  0  0  0  0  0  0  0
   18.6200  -19.6700    0.0000 C   0  0  0  0  0  0  0  0  0  0  0  0
   17.4300  -20.3700    0.0000 C   0  0  0  0  0  0  0  0  0  0  0  0
   16.2400  -19.6700    0.0000 O   0  0  0  0  0  0  0  0  0  0  0  0
   15.0500  -20.3700    0.0000 C   0  0  0  0  0  0  0  0  0  0  0  0
   13.8600  -19.6700    0.0000 C   0  0  0  0  0  0  0  0  0  0  0  0
   15.0500  -21.7700    0.0000 C   0  0  0  0  0  0  0  0  0  0  0  0
   17.4300  -21.7700    0.0000 O   0  0  0  0  0  0  0  0  0  0  0  0
   19.8100  -20.3700    0.0000 C   0  0  0  0  0  0  0  0  0  0  0  0
   23.3100  -19.1100    0.0000 C   0  0  0  0  0  0  0  0  0  0  0  0
   22.5400  -22.2600    0.0000 N   0  0  0  0  0  0  0  0  0  0  0  0
   22.5400  -23.7300    0.0000 C   0  0  0  0  0  0  0  0  0  0  0  0
   21.3500  -24.4300    0.0000 N   0  0  0  0  0  0  0  0  0  0  0  0
   20.0900  -23.7300    0.0000 C   0  0  0  0  0  0  0  0  0  0  0  0
   20.0900  -22.2600    0.0000 C   0  0  0  0  0  0  0  0  0  0  0  0
   21.3500  -21.5600    0.0000 C   0  0  0  0  0  0  0  0  0  0  0  0
   18.7600  -24.1500    0.0000 N   0  0  0  0  0  0  0  0  0  0  0  0
   17.9900  -23.0300    0.0000 C   0  0  0  0  0  0  0  0  0  0  0  0
   18.7600  -21.8400    0.0000 N   0  0  0  0  0  0  0  0  0  0  0  0
   21.3500  -20.1600    0.0000 N   0  0  0  0  0  0  0  0  0  0  0  0
   18.7600  -25.5500    0.0000 C   0  0  0  0  0  0  0  0  0  0  0  0
   17.5700  -26.2500    0.0000 C   0  0  0  0  0  0  0  0  0  0  0  0
   16.3100  -25.5500    0.0000 O   0  0  0  0  0  0  0  0  0  0  0  0
   15.2600  -26.2500    0.0000 C   0  0  0  0  0  0  0  0  0  0  0  0
   14.0000  -25.5500    0.0000 P   0  0  0  0  0  0  0  0  0  0  0  0
   17.5700  -27.5800    0.0000 C   0  0  0  0  0  0  0  0  0  0  0  0
   12.7400  -24.8500    0.0000 O   0  0  0  0  0  0  0  0  0  0  0  0
   14.7000  -24.2900    0.0000 O   0  0  0  0  0  0  0  0  0  0  0  0
   12.8800  -26.7400    0.0000 N   0  0  0  0  0  0  0  0  0  0  0  0
   11.3400  -24.8500    0.0000 C   0  0  0  0  0  0  0  0  0  0  0  0
   10.6400  -23.6376    0.0000 C   0  0  0  0  0  0  0  0  0  0  0  0
    9.2400  -23.6376    0.0000 C   0  0  0  0  0  0  0  0  0  0  0  0
    8.5400  -24.8500    0.0000 C   0  0  0  0  0  0  0  0  0  0  0  0
    9.2400  -26.0624    0.0000 C   0  0  0  0  0  0  0  0  0  0  0  0
   10.6400  -26.0624    0.0000 C   0  0  0  0  0  0  0  0  0  0  0  0
   12.8800  -28.1400    0.0000 C   0  0  0  0  0  0  0  0  0  0  0  0
   11.6676  -28.8400    0.0000 C   0  0  0  0  0  0  0  0  0  0  0  0
   14.0924  -28.8400    0.0000 C   0  0  0  0  0  0  0  0  0  0  0  0
   10.4721  -28.1496    0.0000 O   0  0  0  0  0  0  0  0  0  0  0  0
   11.6675  -30.2398    0.0000 O   0  0  0  0  0  0  0  0  0  0  0  0
    9.2847  -28.8351    0.0000 C   0  0  0  0  0  0  0  0  0  0  0  0
    8.0935  -28.1471    0.0000 C   0  0  0  0  0  0  0  0  0  0  0  0
    9.2845  -30.2398    0.0000 C   0  0  0  0  0  0  0  0  0  0  0  0
  8  6  1  0
  4  5  1  0
  2  1  1  6
  3  4  1  6
  6  3  1  0
  1  9  1  0
  9 10  2  0
 10 11  1  0
 11 12  2  0
 12 13  1  0
 13  1  1  0
  3  7  1  0
 11 14  1  0
  7  2  1  0
 10 15  1  0
  2  8  1  0
 13 16  2  0
 17 18  2  0
 18 19  1  0
 19 20  2  0
 20 21  1  0
 21 22  2  0
 17 22  1  0
 20 23  1  0
 23 24  1  0
 24 25  2  0
 25 26  1  0
 26 27  2  0
 27 28  1  0
 28 29  2  0
 24 29  1  0
 26 30  1  0
 30 31  1  0
 31 32  2  0
 32 33  1  0
 33 34  2  0
 34 35  1  0
 35 36  2  0
 31 36  1  0
 21 37  1  0
 34 38  1  0
 38 39  3  0
 17 40  1  0
 40 41  2  0
 41 42  1  0
 42 43  3  0
 19 44  1  0
 46 47  2  0
 47 48  1  0
 48 49  2  0
 49 50  1  0
 50 51  2  0
 46 51  1  0
 49 52  1  0
 52 53  1  0
 53 54  2  0
 54 55  1  0
 55 56  2  0
 56 57  1  0
 57 58  2  0
 53 58  1  0
 55 59  1  0
 59 60  1  0
 60 61  2  0
 61 62  1  0
 62 63  2  0
 63 64  1  0
 64 65  2  0
 60 65  1  0
 50 66  1  0
 63 67  1  0
 67 68  3  0
 46 69  1  0
 69 70  2  0
 70 71  1  0
 71 72  3  0
 48 73  1  0
107108  1  0
107109  1  0
107110  2  0
108111  2  0
111112  1  0
112113  1  0
112114  2  0
 74 75  2  0
 75 76  1  0
 76 77  2  0
 77 78  1  0
 78 79  2  0
 74 79  1  0
 77 80  1  0
 80 81  1  0
 81 82  2  0
 78 82  1  0
 79 83  1  0
 80 84  1  0
 84 85  1  0
 85 86  1  0
 86 87  1  0
 88 87  1  1
 85 89  1  1
 88 90  1  0
 88 91  2  0
 88 92  1  0
 90 93  1  0
 93 94  2  0
 94 95  1  0
 95 96  2  0
 96 97  1  0
 97 98  2  0
 93 98  1  0
 92 99  1  0
 99100  1  0
 99101  1  1
100102  1  0
100103  2  0
102104  1  0
104105  1  0
104106  1  0
115116  2  0
116117  1  0
117118  2  0
118119  1  0
119120  2  0
115120  1  0
118124  1  0
124123  1  0
123122  2  0
119122  1  0
120121  1  0
124125  1  0
125126  1  0
126127  1  0
127128  1  0
129128  1  1
126147  1  1
129130  1  0
129137  2  0
129138  1  0
130131  1  0
131132  2  0
132133  1  0
133134  2  0
134135  1  0
135136  2  0
131136  1  0
138139  1  0
139140  1  0
139146  1  1
140141  1  0
140145  2  0
141142  1  0
142143  1  0
142144  1  0
148149  2  0
149150  1  0
150151  2  0
151152  1  0
152153  2  0
148153  1  0
151154  1  0
154155  1  0
155156  2  0
152156  1  0
153157  1  0
154158  1  0
158159  1  0
159160  1  0
160161  1  0
162161  1  1
159163  1  1
162164  1  0
162165  2  0
162166  1  0
164167  1  0
167168  2  0
168169  1  0
169170  2  0
170171  1  0
171172  2  0
167172  1  0
166173  1  0
173174  1  0
173175  1  1
174176  1  0
174177  2  0
176178  1  0
178179  1  0
178180  1  0
M  END
