 
     RDKit          2D

 44 45  0  0  1  0  0  0  0  0999 V2000
   13.1600  -38.5700    0.0000 C   0  0  0  0  0  0  0  0  0  0  0  0
   13.1600  -39.9700    0.0000 C   0  0  0  0  0  0  0  0  0  0  0  0
   14.3724  -40.6700    0.0000 C   0  0  0  0  0  0  0  0  0  0  0  0
   15.5849  -39.9700    0.0000 C   0  0  0  0  0  0  0  0  0  0  0  0
   15.5849  -38.5700    0.0000 C   0  0  0  0  0  0  0  0  0  0  0  0
   14.3724  -37.8700    0.0000 C   0  0  0  0  0  0  0  0  0  0  0  0
   11.9476  -37.8700    0.0000 O   0  0  0  0  0  0  0  0  0  0  0  0
   16.8160  -37.8590    0.0000 C   0  0  0  0  0  0  0  0  0  0  0  0
   18.0212  -38.5547    0.0000 C   0  0  0  0  0  0  0  0  0  0  0  0
   16.8157  -36.4701    0.0000 O   0  0  0  0  0  0  0  0  0  0  0  0
   19.2035  -37.8719    0.0000 N   0  0  0  0  0  0  0  0  0  0  0  0
   20.3975  -38.5612    0.0000 C   0  0  0  0  0  0  0  0  0  0  0  0
   25.9001  -19.1101    0.0000 Cl  0  0  0  0  0  0  0  0  0  0  0  0
   18.0600  -16.7300    0.0000 C   0  0  0  0  0  0  0  0  0  0  0  0
   18.0600  -18.1300    0.0000 C   0  0  0  0  0  0  0  0  0  0  0  0
   19.2500  -18.8300    0.0000 C   0  0  0  0  0  0  0  0  0  0  0  0
   20.4400  -18.1300    0.0000 C   0  0  0  0  0  0  0  0  0  0  0  0
   20.4400  -16.7300    0.0000 C   0  0  0  0  0  0  0  0  0  0  0  0
   19.2500  -16.0300    0.0000 C   0  0  0  0  0  0  0  0  0  0  0  0
   16.8000  -16.0300    0.0000 O   0  0  0  0  0  0  0  0  0  0  0  0
   21.7000  -16.0300    0.0000 C   0  0  0  0  0  0  0  0  0  0  0  0
   22.8900  -16.7300    0.0000 C   0  0  0  0  0  0  0  0  0  0  0  0
   21.7000  -14.6300    0.0000 O   0  0  0  0  0  0  0  0  0  0  0  0
   24.0800  -16.0300    0.0000 N   0  0  0  0  0  0  0  0  0  0  0  0
   25.2700  -16.7300    0.0000 C   0  0  0  0  0  0  0  0  0  0  0  0
   24.8500  -17.0800    0.0000 N   0  0  0  0  0  0  0  0  0  0  0  0
   25.9700  -17.9200    0.0000 C   0  0  0  0  0  0  0  0  0  0  0  0
   23.7300  -17.9900    0.0000 C   0  0  0  0  0  0  0  0  0  0  0  0
   25.2700  -15.7500    0.0000 C   0  0  0  0  0  0  0  0  0  0  0  0
   27.0900  -17.0800    0.0000 C   0  0  0  0  0  0  0  0  0  0  0  0
   25.5500  -19.2500    0.0000 C   0  0  0  0  0  0  0  0  0  0  0  0
   22.4700  -17.2200    0.0000 C   0  0  0  0  0  0  0  0  0  0  0  0
   24.1500  -19.2500    0.0000 C   0  0  0  0  0  0  0  0  0  0  0  0
   26.6000  -15.7500    0.0000 C   0  0  0  0  0  0  0  0  0  0  0  0
   28.2800  -17.7800    0.0000 C   0  0  0  0  0  0  0  0  0  0  0  0
   21.2800  -17.9900    0.0000 C   0  0  0  0  0  0  0  0  0  0  0  0
   22.4700  -15.8200    0.0000 O   0  0  0  0  0  0  0  0  0  0  0  0
   29.5400  -17.0800    0.0000 O   0  0  0  0  0  0  0  0  0  0  0  0
   28.2800  -19.1800    0.0000 O   0  0  0  0  0  0  0  0  0  0  0  0
   21.2800  -19.3900    0.0000 C   0  0  0  0  0  0  0  0  0  0  0  0
   20.0200  -17.2900    0.0000 C   0  0  0  0  0  0  0  0  0  0  0  0
   20.0200  -20.0900    0.0000 C   0  0  0  0  0  0  0  0  0  0  0  0
   18.8300  -17.9900    0.0000 C   0  0  0  0  0  0  0  0  0  0  0  0
   18.8300  -19.3900    0.0000 C   0  0  0  0  0  0  0  0  0  0  0  0
  1  2  2  0
  2  3  1  0
  3  4  2  0
  4  5  1  0
  5  6  2  0
  1  6  1  0
  1  7  1  0
  5  8  1  0
  8  9  1  0
  8 10  1  1
  9 11  1  0
 11 12  1  0
 14 15  2  0
 15 16  1  0
 16 17  2  0
 17 18  1  0
 18 19  2  0
 14 19  1  0
 14 20  1  0
 18 21  1  0
 21 22  1  0
 21 23  1  1
 22 24  1  0
 24 25  1  0
 26 27  1  0
 26 28  1  0
 26 29  1  0
 27 30  1  0
 27 31  2  0
 28 32  1  0
 28 33  2  0
 29 34  1  0
 30 35  1  0
 32 36  1  0
 32 37  2  0
 35 38  1  0
 35 39  2  0
 36 40  2  0
 36 41  1  0
 40 42  1  0
 41 43  2  0
 42 44  2  0
 30 34  1  0
 31 33  1  0
 43 44  1  0
M  END
