 
 
 
 48 50  0  0  0  0  0  0  0  0999 V2000
   15.0537  -13.7228    0.0000 C   0  0  0  0  0  0  0  0  0  0  0  0
   15.0537  -12.3225    0.0000 C   0  0  0  0  0  0  0  0  0  0  0  0
   13.8635  -11.6224    0.0000 C   0  0  0  0  0  0  0  0  0  0  0  0
   12.6032  -12.3225    0.0000 C   0  0  0  0  0  0  0  0  0  0  0  0
   12.6032  -13.7228    0.0000 C   0  0  0  0  0  0  0  0  0  0  0  0
   13.8635  -14.4230    0.0000 C   0  0  0  0  0  0  0  0  0  0  0  0
   11.4130  -11.6224    0.0000 N   0  0  0  0  0  0  0  0  0  0  0  0
   10.2227  -12.3225    0.0000 C   0  0  0  0  0  0  0  0  0  0  0  0
   10.2227  -13.7228    0.0000 C   0  0  0  0  0  0  0  0  0  0  0  0
   11.4130  -14.4230    0.0000 C   0  0  0  0  0  0  0  0  0  0  0  0
   11.4130  -15.8233    0.0000 N   0  0  0  0  0  0  0  0  0  0  0  0
   12.6032  -16.5234    0.0000 C   0  0  0  0  0  0  0  0  0  0  0  0
    9.1025  -14.4230    0.0000 C   0  0  0  0  0  0  0  0  0  0  0  0
    7.8423  -15.1231    0.0000 N   0  0  0  0  0  0  0  0  0  0  0  0
   13.7935  -15.8233    0.0000 C   0  0  0  0  0  0  0  0  0  0  0  0
   15.0537  -16.5234    0.0000 C   0  0  0  0  0  0  0  0  0  0  0  0
   15.0537  -17.8537    0.0000 C   0  0  0  0  0  0  0  0  0  0  0  0
   13.8635  -18.5539    0.0000 C   0  0  0  0  0  0  0  0  0  0  0  0
   12.6032  -17.8537    0.0000 C   0  0  0  0  0  0  0  0  0  0  0  0
   13.8635  -19.9542    0.0000 Cl  0  0  0  0  0  0  0  0  0  0  0  0
   16.2440  -18.5539    0.0000 O   0  0  0  0  0  0  0  0  0  0  0  0
   17.4342  -17.8537    0.0000 C   0  0  0  0  0  0  0  0  0  0  0  0
   18.6945  -18.5539    0.0000 C   0  0  0  0  0  0  0  0  0  0  0  0
   18.6945  -19.9542    0.0000 N   0  0  0  0  0  0  0  0  0  0  0  0
   19.8848  -20.6543    0.0000 C   0  0  0  0  0  0  0  0  0  0  0  0
   21.0750  -19.9542    0.0000 C   0  0  0  0  0  0  0  0  0  0  0  0
   21.0750  -18.5539    0.0000 C   0  0  0  0  0  0  0  0  0  0  0  0
   19.8848  -17.8537    0.0000 C   0  0  0  0  0  0  0  0  0  0  0  0
   16.2650  -14.4156    0.0000 N   0  0  0  0  0  0  0  0  0  0  0  0
   16.2673  -11.6284    0.0000 O   0  0  0  0  0  0  0  0  0  0  0  0
   16.2673  -10.2284    0.0000 C   0  0  0  0  0  0  0  0  0  0  0  0
   17.4626   -9.5380    0.0000 C   0  0  0  0  0  0  0  0  0  0  0  0
   17.4539  -13.7225    0.0000 C   0  0  0  0  0  0  0  0  0  0  0  0
   18.6501  -14.4066    0.0000 C   0  0  0  0  0  0  0  0  0  0  0  0
   17.4481  -12.3201    0.0000 O   0  0  0  0  0  0  0  0  0  0  0  0
   19.8313  -13.7181    0.0000 C   0  0  0  0  0  0  0  0  0  0  0  0
   21.0313  -14.4044    0.0000 C   0  0  0  0  0  0  0  0  0  0  0  0
   22.2107  -13.7171    0.0000 N   0  0  0  0  0  0  0  0  0  0  0  0
   23.4115  -14.4040    0.0000 C   0  0  0  0  0  0  0  0  0  0  0  0
   22.2051  -12.3201    0.0000 C   0  0  0  0  0  0  0  0  0  0  0  0
   27.4619  -18.0035    0.0000 C   0  0  0  0  0  0  0  0  0  0  0  0
   25.8507  -18.0035    0.0000 C   0  0  0  0  0  0  0  0  0  0  0  0
   28.1625  -19.1944    0.0000 C   0  0  0  0  0  0  0  0  0  0  0  0
   25.1502  -19.1944    0.0000 C   0  0  0  0  0  0  0  0  0  0  0  0
   27.4619  -20.3854    0.0000 O   0  0  0  0  0  0  0  0  0  0  0  0
   29.4935  -19.1944    0.0000 O   0  0  0  0  0  0  0  0  0  0  0  0
   23.8191  -19.1944    0.0000 O   0  0  0  0  0  0  0  0  0  0  0  0
   25.8507  -20.3854    0.0000 O   0  0  0  0  0  0  0  0  0  0  0  0
  1  2  2  0     0  0
  2  3  1  0     0  0
  3  4  2  0     0  0
  4  5  1  0     0  0
  5  6  2  0     0  0
  1  6  1  0     0  0
  4  7  1  0     0  0
  7  8  2  0     0  0
  8  9  1  0     0  0
  9 10  2  0     0  0
  5 10  1  0     0  0
 10 11  1  0     0  0
 11 12  1  0     0  0
  9 13  1  0     0  0
 13 14  3  0     0  0
 12 15  2  0     0  0
 15 16  1  0     0  0
 16 17  2  0     0  0
 17 18  1  0     0  0
 18 19  2  0     0  0
 12 19  1  0     0  0
 18 20  1  0     0  0
 17 21  1  0     0  0
 21 22  1  0     0  0
 22 23  1  0     0  0
 23 24  2  0     0  0
 24 25  1  0     0  0
 25 26  2  0     0  0
 26 27  1  0     0  0
 27 28  2  0     0  0
 23 28  1  0     0  0
  1 29  1  0     0  0
  2 30  1  0     0  0
 30 31  1  0     0  0
 31 32  1  0     0  0
 29 33  1  0     0  0
 33 34  1  0     0  0
 33 35  2  0     0  0
 34 36  2  0     0  0
 36 37  1  0     0  0
 37 38  1  0     0  0
 38 39  1  0     0  0
 38 40  1  0     0  0
 41 42  2  0     0  0
 41 43  1  0     0  0
 42 44  1  0     0  0
 43 45  1  0     0  0
 43 46  2  0     0  0
 44 47  1  0     0  0
 44 48  2  0     0  0
M  END
