 
     RDKit          2D

123129  0  0  1  0  0  0  0  0999 V2000
   25.0103  -17.6390    0.0000 N   0  0  0  0  0  0  0  0  0  0  0  0
   23.6350  -18.1111    0.0000 C   0  0  0  0  0  0  0  0  0  0  0  0
   21.3970  -18.1111    0.0000 C   0  0  0  0  0  0  0  0  0  0  0  0
   20.1381  -17.4117    0.0000 C   0  0  0  0  0  0  0  0  0  0  0  0
   18.9492  -18.1111    0.0000 O   0  0  0  0  0  0  0  0  0  0  0  0
   21.8166  -19.4399    0.0000 S   0  0  0  0  0  0  0  0  0  0  0  0
   22.5160  -17.2718    0.0000 O   0  0  0  0  0  0  0  0  0  0  0  0
   23.2154  -19.4399    0.0000 C   0  0  0  0  0  0  0  0  0  0  0  0
   25.0206  -16.2402    0.0000 C   0  0  0  0  0  0  0  0  0  0  0  0
   26.2146  -15.5496    0.0000 C   0  0  0  0  0  0  0  0  0  0  0  0
   27.4684  -16.2582    0.0000 C   0  0  0  0  0  0  0  0  0  0  0  0
   27.4581  -17.6570    0.0000 N   0  0  0  0  0  0  0  0  0  0  0  0
   26.2641  -18.3476    0.0000 C   0  0  0  0  0  0  0  0  0  0  0  0
   28.6624  -15.5676    0.0000 N   0  0  0  0  0  0  0  0  0  0  0  0
   26.1549  -14.1509    0.0000 F   0  0  0  0  0  0  0  0  0  0  0  0
   26.2538  -19.7463    0.0000 O   0  0  0  0  0  0  0  0  0  0  0  0
   28.2100  -13.7900    0.0000 N   0  0  0  0  0  0  0  0  0  0  0  0
   28.2100  -15.2600    0.0000 C   0  0  0  0  0  0  0  0  0  0  0  0
   27.0200  -15.9600    0.0000 N   0  0  0  0  0  0  0  0  0  0  0  0
   25.8300  -15.2600    0.0000 C   0  0  0  0  0  0  0  0  0  0  0  0
   25.8300  -13.7900    0.0000 C   0  0  0  0  0  0  0  0  0  0  0  0
   27.0200  -13.0900    0.0000 C   0  0  0  0  0  0  0  0  0  0  0  0
   24.5000  -15.6800    0.0000 N   0  0  0  0  0  0  0  0  0  0  0  0
   23.7300  -14.5600    0.0000 C   0  0  0  0  0  0  0  0  0  0  0  0
   24.5000  -13.3700    0.0000 N   0  0  0  0  0  0  0  0  0  0  0  0
   27.0200  -11.7600    0.0000 N   0  0  0  0  0  0  0  0  0  0  0  0
   24.5000  -17.0800    0.0000 C   0  0  0  0  0  0  0  0  0  0  0  0
   23.3100  -17.7800    0.0000 C   0  0  0  0  0  0  0  0  0  0  0  0
   22.0500  -17.0800    0.0000 O   0  0  0  0  0  0  0  0  0  0  0  0
   21.0000  -17.7800    0.0000 C   0  0  0  0  0  0  0  0  0  0  0  0
   19.7400  -17.0800    0.0000 P   0  0  0  0  0  0  0  0  0  0  0  0
   23.3100  -19.1100    0.0000 C   0  0  0  0  0  0  0  0  0  0  0  0
   18.4800  -16.3800    0.0000 O   0  0  0  0  0  0  0  0  0  0  0  0
   20.4400  -15.8200    0.0000 O   0  0  0  0  0  0  0  0  0  0  0  0
   18.6200  -18.2700    0.0000 N   0  0  0  0  0  0  0  0  0  0  0  0
   17.0800  -16.3800    0.0000 C   0  0  0  0  0  0  0  0  0  0  0  0
   16.3800  -15.1900    0.0000 C   0  0  0  0  0  0  0  0  0  0  0  0
   14.9800  -15.1900    0.0000 C   0  0  0  0  0  0  0  0  0  0  0  0
   14.2800  -16.3800    0.0000 C   0  0  0  0  0  0  0  0  0  0  0  0
   14.9800  -17.5700    0.0000 C   0  0  0  0  0  0  0  0  0  0  0  0
   16.3800  -17.5700    0.0000 C   0  0  0  0  0  0  0  0  0  0  0  0
   18.6200  -19.6700    0.0000 C   0  0  0  0  0  0  0  0  0  0  0  0
   17.4300  -20.3700    0.0000 C   0  0  0  0  0  0  0  0  0  0  0  0
   19.8100  -20.3700    0.0000 C   0  0  0  0  0  0  0  0  0  0  0  0
   16.2400  -19.6700    0.0000 O   0  0  0  0  0  0  0  0  0  0  0  0
   17.4300  -21.7700    0.0000 O   0  0  0  0  0  0  0  0  0  0  0  0
   15.0500  -20.3700    0.0000 C   0  0  0  0  0  0  0  0  0  0  0  0
   13.8600  -19.6700    0.0000 C   0  0  0  0  0  0  0  0  0  0  0  0
   15.0500  -21.7700    0.0000 C   0  0  0  0  0  0  0  0  0  0  0  0
   34.5800  -17.5000    0.0000 C   0  0  0  0  0  0  0  0  0  0  0  0
   35.7924  -18.2000    0.0000 C   0  0  0  0  0  0  0  0  0  0  0  0
   33.3676  -18.2000    0.0000 O   0  0  0  0  0  0  0  0  0  0  0  0
   34.5800  -16.1000    0.0000 O   0  0  0  0  0  0  0  0  0  0  0  0
   36.9879  -17.5096    0.0000 C   0  0  0  0  0  0  0  0  0  0  0  0
   38.1753  -18.1951    0.0000 C   0  0  0  0  0  0  0  0  0  0  0  0
   39.3665  -17.5071    0.0000 O   0  0  0  0  0  0  0  0  0  0  0  0
   38.1755  -19.5998    0.0000 O   0  0  0  0  0  0  0  0  0  0  0  0
   28.2100  -13.7900    0.0000 N   0  0  0  0  0  0  0  0  0  0  0  0
   28.2100  -15.2600    0.0000 C   0  0  0  0  0  0  0  0  0  0  0  0
   27.0200  -15.9600    0.0000 N   0  0  0  0  0  0  0  0  0  0  0  0
   25.8300  -15.2600    0.0000 C   0  0  0  0  0  0  0  0  0  0  0  0
   25.8300  -13.7900    0.0000 C   0  0  0  0  0  0  0  0  0  0  0  0
   27.0200  -13.0900    0.0000 C   0  0  0  0  0  0  0  0  0  0  0  0
   27.0200  -11.7600    0.0000 N   0  0  0  0  0  0  0  0  0  0  0  0
   24.5000  -13.3700    0.0000 N   0  0  0  0  0  0  0  0  0  0  0  0
   23.7300  -14.5600    0.0000 C   0  0  0  0  0  0  0  0  0  0  0  0
   24.5000  -15.6800    0.0000 N   0  0  0  0  0  0  0  0  0  0  0  0
   24.5000  -17.0800    0.0000 C   0  0  0  0  0  0  0  0  0  0  0  0
   23.3100  -17.7800    0.0000 C   0  0  0  0  0  0  0  0  0  0  0  0
   22.0500  -17.0800    0.0000 O   0  0  0  0  0  0  0  0  0  0  0  0
   21.0000  -17.7800    0.0000 C   0  0  0  0  0  0  0  0  0  0  0  0
   19.7400  -17.0800    0.0000 P   0  0  0  0  0  0  0  0  0  0  0  0
   18.4800  -16.3800    0.0000 O   0  0  0  0  0  0  0  0  0  0  0  0
   17.0800  -16.3800    0.0000 C   0  0  0  0  0  0  0  0  0  0  0  0
   16.3800  -15.1900    0.0000 C   0  0  0  0  0  0  0  0  0  0  0  0
   14.9800  -15.1900    0.0000 C   0  0  0  0  0  0  0  0  0  0  0  0
   14.2800  -16.3800    0.0000 C   0  0  0  0  0  0  0  0  0  0  0  0
   14.9800  -17.5700    0.0000 C   0  0  0  0  0  0  0  0  0  0  0  0
   16.3800  -17.5700    0.0000 C   0  0  0  0  0  0  0  0  0  0  0  0
   20.4400  -15.8200    0.0000 O   0  0  0  0  0  0  0  0  0  0  0  0
   18.6200  -18.2700    0.0000 N   0  0  0  0  0  0  0  0  0  0  0  0
   18.6200  -19.6700    0.0000 C   0  0  0  0  0  0  0  0  0  0  0  0
   17.4300  -20.3700    0.0000 C   0  0  0  0  0  0  0  0  0  0  0  0
   16.2400  -19.6700    0.0000 O   0  0  0  0  0  0  0  0  0  0  0  0
   15.0500  -20.3700    0.0000 C   0  0  0  0  0  0  0  0  0  0  0  0
   13.8600  -19.6700    0.0000 C   0  0  0  0  0  0  0  0  0  0  0  0
   15.0500  -21.7700    0.0000 C   0  0  0  0  0  0  0  0  0  0  0  0
   17.4300  -21.7700    0.0000 O   0  0  0  0  0  0  0  0  0  0  0  0
   19.8100  -20.3700    0.0000 C   0  0  0  0  0  0  0  0  0  0  0  0
   23.3100  -19.1100    0.0000 C   0  0  0  0  0  0  0  0  0  0  0  0
   22.5400  -22.2600    0.0000 N   0  0  0  0  0  0  0  0  0  0  0  0
   22.5400  -23.7300    0.0000 C   0  0  0  0  0  0  0  0  0  0  0  0
   21.3500  -24.4300    0.0000 N   0  0  0  0  0  0  0  0  0  0  0  0
   20.0900  -23.7300    0.0000 C   0  0  0  0  0  0  0  0  0  0  0  0
   20.0900  -22.2600    0.0000 C   0  0  0  0  0  0  0  0  0  0  0  0
   21.3500  -21.5600    0.0000 C   0  0  0  0  0  0  0  0  0  0  0  0
   18.7600  -24.1500    0.0000 N   0  0  0  0  0  0  0  0  0  0  0  0
   17.9900  -23.0300    0.0000 C   0  0  0  0  0  0  0  0  0  0  0  0
   18.7600  -21.8400    0.0000 N   0  0  0  0  0  0  0  0  0  0  0  0
   21.3500  -20.1600    0.0000 N   0  0  0  0  0  0  0  0  0  0  0  0
   18.7600  -25.5500    0.0000 C   0  0  0  0  0  0  0  0  0  0  0  0
   17.5700  -26.2500    0.0000 C   0  0  0  0  0  0  0  0  0  0  0  0
   16.3100  -25.5500    0.0000 O   0  0  0  0  0  0  0  0  0  0  0  0
   15.2600  -26.2500    0.0000 C   0  0  0  0  0  0  0  0  0  0  0  0
   14.0000  -25.5500    0.0000 P   0  0  0  0  0  0  0  0  0  0  0  0
   17.5700  -27.5800    0.0000 C   0  0  0  0  0  0  0  0  0  0  0  0
   12.7400  -24.8500    0.0000 O   0  0  0  0  0  0  0  0  0  0  0  0
   14.7000  -24.2900    0.0000 O   0  0  0  0  0  0  0  0  0  0  0  0
   12.8800  -26.7400    0.0000 N   0  0  0  0  0  0  0  0  0  0  0  0
   11.3400  -24.8500    0.0000 C   0  0  0  0  0  0  0  0  0  0  0  0
   10.6400  -23.6376    0.0000 C   0  0  0  0  0  0  0  0  0  0  0  0
    9.2400  -23.6376    0.0000 C   0  0  0  0  0  0  0  0  0  0  0  0
    8.5400  -24.8500    0.0000 C   0  0  0  0  0  0  0  0  0  0  0  0
    9.2400  -26.0624    0.0000 C   0  0  0  0  0  0  0  0  0  0  0  0
   10.6400  -26.0624    0.0000 C   0  0  0  0  0  0  0  0  0  0  0  0
   12.8800  -28.1400    0.0000 C   0  0  0  0  0  0  0  0  0  0  0  0
   11.6676  -28.8400    0.0000 C   0  0  0  0  0  0  0  0  0  0  0  0
   14.0924  -28.8400    0.0000 C   0  0  0  0  0  0  0  0  0  0  0  0
   10.4721  -28.1496    0.0000 O   0  0  0  0  0  0  0  0  0  0  0  0
   11.6675  -30.2398    0.0000 O   0  0  0  0  0  0  0  0  0  0  0  0
    9.2847  -28.8351    0.0000 C   0  0  0  0  0  0  0  0  0  0  0  0
    8.0935  -28.1471    0.0000 C   0  0  0  0  0  0  0  0  0  0  0  0
    9.2845  -30.2398    0.0000 C   0  0  0  0  0  0  0  0  0  0  0  0
  8  6  1  0
  4  5  1  0
  2  1  1  6
  3  4  1  6
  6  3  1  0
  1  9  1  0
  9 10  2  0
 10 11  1  0
 11 12  2  0
 12 13  1  0
 13  1  1  0
  3  7  1  0
 11 14  1  0
  7  2  1  0
 10 15  1  0
  2  8  1  0
 13 16  2  0
 50 51  1  0
 50 52  1  0
 50 53  2  0
 51 54  2  0
 54 55  1  0
 55 56  1  0
 55 57  2  0
 17 18  2  0
 18 19  1  0
 19 20  2  0
 20 21  1  0
 21 22  2  0
 17 22  1  0
 20 23  1  0
 23 24  1  0
 24 25  2  0
 21 25  1  0
 22 26  1  0
 23 27  1  0
 27 28  1  0
 28 29  1  0
 29 30  1  0
 31 30  1  1
 28 32  1  1
 31 33  1  0
 31 34  2  0
 31 35  1  0
 33 36  1  0
 36 37  2  0
 37 38  1  0
 38 39  2  0
 39 40  1  0
 40 41  2  0
 36 41  1  0
 35 42  1  0
 42 43  1  0
 42 44  1  1
 43 45  1  0
 43 46  2  0
 45 47  1  0
 47 48  1  0
 47 49  1  0
 58 59  2  0
 59 60  1  0
 60 61  2  0
 61 62  1  0
 62 63  2  0
 58 63  1  0
 61 67  1  0
 67 66  1  0
 66 65  2  0
 62 65  1  0
 63 64  1  0
 67 68  1  0
 68 69  1  0
 69 70  1  0
 70 71  1  0
 72 71  1  1
 69 90  1  1
 72 73  1  0
 72 80  2  0
 72 81  1  0
 73 74  1  0
 74 75  2  0
 75 76  1  0
 76 77  2  0
 77 78  1  0
 78 79  2  0
 74 79  1  0
 81 82  1  0
 82 83  1  0
 82 89  1  1
 83 84  1  0
 83 88  2  0
 84 85  1  0
 85 86  1  0
 85 87  1  0
 91 92  2  0
 92 93  1  0
 93 94  2  0
 94 95  1  0
 95 96  2  0
 91 96  1  0
 94 97  1  0
 97 98  1  0
 98 99  2  0
 95 99  1  0
 96100  1  0
 97101  1  0
101102  1  0
102103  1  0
103104  1  0
105104  1  1
102106  1  1
105107  1  0
105108  2  0
105109  1  0
107110  1  0
110111  2  0
111112  1  0
112113  2  0
113114  1  0
114115  2  0
110115  1  0
109116  1  0
116117  1  0
116118  1  1
117119  1  0
117120  2  0
119121  1  0
121122  1  0
121123  1  0
M  END
