 
     RDKit          2D

 46 52  0  0  1  0  0  0  0  0999 V2000
   38.1698  -26.8652    0.0000 C   0  0  0  0  0  0  0  0  0  0  0  0
   38.1698  -28.2186    0.0000 C   0  0  0  0  0  0  0  0  0  0  0  0
   39.3417  -28.8953    0.0000 C   0  0  0  0  0  0  0  0  0  0  0  0
   40.5138  -28.2186    0.0000 C   0  0  0  0  0  0  0  0  0  0  0  0
   40.5138  -26.8652    0.0000 C   0  0  0  0  0  0  0  0  0  0  0  0
   39.3417  -26.1886    0.0000 C   0  0  0  0  0  0  0  0  0  0  0  0
   41.6858  -28.8953    0.0000 C   0  0  0  0  0  0  0  0  0  0  0  0
   42.8577  -28.2186    0.0000 C   0  0  0  0  0  0  0  0  0  0  0  0
   42.8577  -26.8652    0.0000 C   0  0  0  0  0  0  0  0  0  0  0  0
   41.6858  -26.1886    0.0000 C   0  0  0  0  0  0  0  0  0  0  0  0
   44.0298  -26.1886    0.0000 C   0  0  0  0  0  0  0  0  0  0  0  0
   44.0298  -24.8353    0.0000 C   0  0  0  0  0  0  0  0  0  0  0  0
   42.8577  -24.1587    0.0000 C   0  0  0  0  0  0  0  0  0  0  0  0
   41.6858  -24.8353    0.0000 C   0  0  0  0  0  0  0  0  0  0  0  0
   46.3738  -26.1886    0.0000 C   0  0  0  0  0  0  0  0  0  0  0  0
   46.3738  -24.8353    0.0000 C   0  0  0  0  0  0  0  0  0  0  0  0
   45.2018  -24.1587    0.0000 C   0  0  0  0  0  0  0  0  0  0  0  0
   36.9978  -28.8953    0.0000 N   0  0  0  0  0  0  0  0  0  0  0  0
   44.0298  -23.4819    0.0000 C   0  0  0  0  0  0  0  0  0  0  0  0
   45.2018  -22.5295    0.0000 O   0  0  0  0  0  0  0  0  0  0  0  0
   46.3960  -23.4691    0.0000 C   0  0  0  0  0  0  0  0  0  0  0  0
   47.5904  -22.7796    0.0000 C   0  0  0  0  0  0  0  0  0  0  0  0
   42.8300  -22.7892    0.0000 C   0  0  0  0  0  0  0  0  0  0  0  0
   35.7818  -28.1935    0.0000 O   0  0  0  0  0  0  0  0  0  0  0  0
   20.4641  -16.5790    0.0000 C   0  0  0  0  0  0  0  0  0  0  0  0
   20.4525  -15.2599    0.0000 C   0  0  0  0  0  0  0  0  0  0  0  0
   19.3184  -17.2675    0.0000 C   0  0  0  0  0  0  0  0  0  0  0  0
   22.7610  -16.5558    0.0000 C   0  0  0  0  0  0  0  0  0  0  0  0
   21.5923  -14.5829    0.0000 C   0  0  0  0  0  0  0  0  0  0  0  0
   19.2897  -14.6060    0.0000 C   0  0  0  0  0  0  0  0  0  0  0  0
   20.4069  -13.9233    0.0000 C   0  0  0  0  0  0  0  0  0  0  0  0
   18.1671  -16.6137    0.0000 C   0  0  0  0  0  0  0  0  0  0  0  0
   19.3474  -18.5982    0.0000 C   0  0  0  0  0  0  0  0  0  0  0  0
   22.7435  -15.2310    0.0000 C   0  0  0  0  0  0  0  0  0  0  0  0
   22.6337  -13.9233    0.0000 C   0  0  0  0  0  0  0  0  0  0  0  0
   18.2198  -15.2887    0.0000 C   0  0  0  0  0  0  0  0  0  0  0  0
   17.0216  -17.3022    0.0000 C   0  0  0  0  0  0  0  0  0  0  0  0
   18.2020  -19.2926    0.0000 C   0  0  0  0  0  0  0  0  0  0  0  0
   23.6808  -13.2580    0.0000 C   0  0  0  0  0  0  0  0  0  0  0  0
   17.0390  -18.6328    0.0000 C   0  0  0  0  0  0  0  0  0  0  0  0
   15.8414  -16.6542    0.0000 C   0  0  0  0  0  0  0  0  0  0  0  0
   15.8992  -19.3387    0.0000 C   0  0  0  0  0  0  0  0  0  0  0  0
   14.6901  -17.3484    0.0000 C   0  0  0  0  0  0  0  0  0  0  0  0
   14.7190  -18.6967    0.0000 C   0  0  0  0  0  0  0  0  0  0  0  0
   13.5735  -19.3908    0.0000 O   0  0  0  0  0  0  0  0  0  0  0  0
   21.5923  -12.9182    0.0000 O   0  0  0  0  0  0  0  0  0  0  0  0
  1  2  1  0
  2  3  1  0
  3  4  2  0
  4  5  1  0
  5  6  1  6
  1  6  1  0
  4  7  1  0
  7  8  1  0
  9  8  1  6
  9 10  1  0
  5 10  1  0
  9 11  1  0
 11 12  1  0
 12 13  1  0
 13 14  1  0
 10 14  1  1
 11 15  1  1
 15 16  1  0
 16 17  1  0
 12 17  1  0
  2 18  2  0
 12 19  1  1
 17 20  1  1
 17 21  1  0
 21 22  3  0
 19 23  1  0
 18 24  1  0
 25 26  1  0
 25 27  1  0
 25 28  1  1
 26 29  1  0
 26 30  1  0
 26 31  1  1
 27 32  1  0
 27 33  1  6
 28 34  1  0
 29 35  1  0
 30 36  1  0
 32 37  1  0
 33 38  1  0
 35 39  3  0
 37 40  2  0
 37 41  1  0
 40 42  1  0
 41 43  2  0
 42 44  2  0
 44 45  1  0
 29 34  1  0
 32 36  1  1
 38 40  1  0
 43 44  1  0
 29 46  1  1
M  END
