 
     RDKit          2D

 74 76  0  0  0  0  0  0  0  0999 V2000
   34.1717  -16.9041    0.0000 Cl  0  0  0  0  0  0  0  0  0  0  0  0
   24.1844  -15.2181    0.0000 C   0  0  0  0  0  0  0  0  0  0  0  0
   24.1844  -16.6229    0.0000 C   0  0  0  0  0  0  0  0  0  0  0  0
   25.4010  -17.3254    0.0000 N   0  0  0  0  0  0  0  0  0  0  0  0
   26.6177  -16.6229    0.0000 C   0  0  0  0  0  0  0  0  0  0  0  0
   26.6177  -15.2181    0.0000 C   0  0  0  0  0  0  0  0  0  0  0  0
   25.4010  -14.5157    0.0000 C   0  0  0  0  0  0  0  0  0  0  0  0
   27.8343  -17.3254    0.0000 C   0  0  0  0  0  0  0  0  0  0  0  0
   29.0509  -16.6229    0.0000 C   0  0  0  0  0  0  0  0  0  0  0  0
   29.0509  -15.2181    0.0000 C   0  0  0  0  0  0  0  0  0  0  0  0
   27.8343  -14.5157    0.0000 C   0  0  0  0  0  0  0  0  0  0  0  0
   22.9678  -17.3254    0.0000 O   0  0  0  0  0  0  0  0  0  0  0  0
   27.8343  -13.1108    0.0000 O   0  0  0  0  0  0  0  0  0  0  0  0
   29.0530  -12.4072    0.0000 C   0  0  0  0  0  0  0  0  0  0  0  0
   30.2536  -13.1006    0.0000 C   0  0  0  0  0  0  0  0  0  0  0  0
   31.4445  -12.4130    0.0000 C   0  0  0  0  0  0  0  0  0  0  0  0
   30.2537  -14.5154    0.0000 O   0  0  0  0  0  0  0  0  0  0  0  0
   32.6401  -13.1036    0.0000 N   0  0  0  0  0  0  0  0  0  0  0  0
   33.8337  -12.4145    0.0000 C   0  0  0  0  0  0  0  0  0  0  0  0
   35.0333  -11.7219    0.0000 C   0  0  0  0  0  0  0  0  0  0  0  0
   34.5265  -13.6153    0.0000 C   0  0  0  0  0  0  0  0  0  0  0  0
   33.1223  -11.1820    0.0000 C   0  0  0  0  0  0  0  0  0  0  0  0
   19.3200  -18.8300    0.0000 C   0  0  0  0  0  0  0  0  0  0  0  0
   19.3200  -20.2300    0.0000 C   0  0  0  0  0  0  0  0  0  0  0  0
   20.5800  -21.0000    0.0000 N   0  0  0  0  0  0  0  0  0  0  0  0
   21.7700  -20.2300    0.0000 C   0  0  0  0  0  0  0  0  0  0  0  0
   21.7700  -18.8300    0.0000 C   0  0  0  0  0  0  0  0  0  0  0  0
   20.5800  -18.1300    0.0000 C   0  0  0  0  0  0  0  0  0  0  0  0
   23.0300  -21.0000    0.0000 C   0  0  0  0  0  0  0  0  0  0  0  0
   24.2200  -20.2300    0.0000 C   0  0  0  0  0  0  0  0  0  0  0  0
   24.2200  -18.8300    0.0000 C   0  0  0  0  0  0  0  0  0  0  0  0
   23.0300  -18.1300    0.0000 C   0  0  0  0  0  0  0  0  0  0  0  0
   18.1300  -21.0000    0.0000 O   0  0  0  0  0  0  0  0  0  0  0  0
   23.0300  -16.7300    0.0000 O   0  0  0  0  0  0  0  0  0  0  0  0
   24.2200  -16.0300    0.0000 C   0  0  0  0  0  0  0  0  0  0  0  0
   25.4100  -16.7300    0.0000 C   0  0  0  0  0  0  0  0  0  0  0  0
   26.6000  -16.0300    0.0000 C   0  0  0  0  0  0  0  0  0  0  0  0
   25.4100  -18.1300    0.0000 O   0  0  0  0  0  0  0  0  0  0  0  0
   27.7900  -16.7300    0.0000 N   0  0  0  0  0  0  0  0  0  0  0  0
   28.9800  -16.0300    0.0000 C   0  0  0  0  0  0  0  0  0  0  0  0
   30.1700  -15.3300    0.0000 C   0  0  0  0  0  0  0  0  0  0  0  0
   29.6800  -17.2900    0.0000 C   0  0  0  0  0  0  0  0  0  0  0  0
   28.2800  -14.8400    0.0000 C   0  0  0  0  0  0  0  0  0  0  0  0
   18.8346  -20.3048    0.0000 C   0  0  0  0  0  0  0  0  0  0  0  0
   18.8346  -21.7052    0.0000 C   0  0  0  0  0  0  0  0  0  0  0  0
   17.4343  -19.8847    0.0000 C   0  0  0  0  0  0  0  0  0  0  0  0
   20.0249  -19.6046    0.0000 C   0  0  0  0  0  0  0  0  0  0  0  0
   17.5043  -22.1253    0.0000 C   0  0  0  0  0  0  0  0  0  0  0  0
   20.0249  -22.4054    0.0000 C   0  0  0  0  0  0  0  0  0  0  0  0
   16.6641  -21.0050    0.0000 C   0  0  0  0  0  0  0  0  0  0  0  0
   21.2152  -20.3048    0.0000 C   0  0  0  0  0  0  0  0  0  0  0  0
   17.0842  -23.5256    0.0000 O   0  0  0  0  0  0  0  0  0  0  0  0
   21.2152  -21.7052    0.0000 C   0  0  0  0  0  0  0  0  0  0  0  0
   22.4755  -22.4054    0.0000 C   0  0  0  0  0  0  0  0  0  0  0  0
   23.6658  -21.7052    0.0000 C   0  0  0  0  0  0  0  0  0  0  0  0
   22.4755  -23.8057    0.0000 O   0  0  0  0  0  0  0  0  0  0  0  0
   24.9261  -22.4054    0.0000 C   0  0  0  0  0  0  0  0  0  0  0  0
   24.9261  -23.8057    0.0000 C   0  0  0  0  0  0  0  0  0  0  0  0
   26.1164  -24.5059    0.0000 C   0  0  0  0  0  0  0  0  0  0  0  0
   26.1164  -25.9061    0.0000 C   0  0  0  0  0  0  0  0  0  0  0  0
   24.9261  -26.6063    0.0000 C   0  0  0  0  0  0  0  0  0  0  0  0
   23.6658  -25.9061    0.0000 C   0  0  0  0  0  0  0  0  0  0  0  0
   23.6658  -24.5059    0.0000 C   0  0  0  0  0  0  0  0  0  0  0  0
   16.9442  -18.5544    0.0000 O   0  0  0  0  0  0  0  0  0  0  0  0
   22.6156  -20.3048    0.0000 C   0  0  0  0  0  0  0  0  0  0  0  0
   23.8059  -19.6046    0.0000 C   0  0  0  0  0  0  0  0  0  0  0  0
   24.9961  -20.3048    0.0000 C   0  0  0  0  0  0  0  0  0  0  0  0
   26.1864  -19.6046    0.0000 C   0  0  0  0  0  0  0  0  0  0  0  0
   27.3767  -20.3048    0.0000 C   0  0  0  0  0  0  0  0  0  0  0  0
   28.5670  -19.6046    0.0000 O   0  0  0  0  0  0  0  0  0  0  0  0
   29.7573  -20.3048    0.0000 C   0  0  0  0  0  0  0  0  0  0  0  0
   30.9476  -19.6046    0.0000 C   0  0  0  0  0  0  0  0  0  0  0  0
   27.3767  -21.7052    0.0000 O   0  0  0  0  0  0  0  0  0  0  0  0
   29.7573  -21.7052    0.0000 C   0  0  0  0  0  0  0  0  0  0  0  0
  2  3  1  0
  3  4  1  0
  4  5  1  0
  5  6  2  0
  6  7  1  0
  2  7  1  0
  5  8  1  0
  8  9  2  0
  9 10  1  0
 10 11  2  0
  6 11  1  0
  3 12  2  0
 11 13  1  0
 13 14  1  0
 14 15  1  0
 15 16  1  0
 15 17  1  0
 16 18  1  0
 18 19  1  0
 19 20  1  0
 19 21  1  0
 19 22  1  0
 23 24  1  0
 24 25  1  0
 25 26  1  0
 26 27  2  0
 27 28  1  0
 23 28  1  0
 26 29  1  0
 29 30  2  0
 30 31  1  0
 31 32  2  0
 27 32  1  0
 24 33  2  0
 32 34  1  0
 34 35  1  0
 35 36  1  0
 36 37  1  0
 36 38  1  0
 37 39  1  0
 39 40  1  0
 40 41  1  0
 40 42  1  0
 40 43  1  0
 55 57  1  0
 48 50  1  0
 57 58  1  0
 44 45  1  0
 44 46  1  0
 44 47  1  6
 45 48  1  0
 45 49  1  1
 58 59  2  0
 59 60  1  0
 60 61  2  0
 61 62  1  0
 62 63  2  0
 63 58  1  0
 46 50  1  0
 47 51  1  0
 48 52  1  6
 49 53  1  0
 53 54  1  0
 54 55  1  0
 54 56  1  6
 46 64  1  6
 51 65  2  0
 66 67  1  0
 66 65  1  0
 67 68  1  0
 68 69  1  0
 69 70  1  0
 70 71  1  0
 71 72  1  0
 69 73  2  0
 71 74  1  0
M  END
