 
     RDKit          2D

101111  0  0  1  0  0  0  0  0999 V2000
    9.2183  -16.9828    0.0000 C   0  0  0  0  0  0  0  0  0  0  0  0
   10.4121  -17.6720    0.0000 C   0  0  0  0  0  0  0  0  0  0  0  0
   11.6059  -16.9828    0.0000 O   0  0  0  0  0  0  0  0  0  0  0  0
   12.7996  -17.6720    0.0000 C   0  0  0  0  0  0  0  0  0  0  0  0
   13.9933  -16.9828    0.0000 C   0  0  0  0  0  0  0  0  0  0  0  0
   15.1872  -17.6720    0.0000 N   0  0  0  0  0  0  0  0  0  0  0  0
   10.4121  -19.0502    0.0000 C   0  0  0  0  0  0  0  0  0  0  0  0
   12.7996  -19.0504    0.0000 O   0  0  0  0  0  0  0  0  0  0  0  0
   13.9933  -15.6045    0.0000 C   0  0  0  0  0  0  0  0  0  0  0  0
   20.6947  -17.5762    0.0000 C   0  0  0  0  0  0  0  0  0  0  0  0
   21.1222  -18.9240    0.0000 C   0  0  0  0  0  0  0  0  0  0  0  0
   22.5361  -18.9339    0.0000 C   0  0  0  0  0  0  0  0  0  0  0  0
   22.9826  -17.5921    0.0000 C   0  0  0  0  0  0  0  0  0  0  0  0
   21.8444  -16.7531    0.0000 O   0  0  0  0  0  0  0  0  0  0  0  0
   16.9323  -16.9828    0.0000 P   0  0  0  0  0  0  0  0  0  0  0  0
   15.7425  -16.2958    0.0000 O   0  0  0  0  0  0  0  0  0  0  0  0
   18.1300  -16.2913    0.0000 O   0  0  0  0  0  0  0  0  0  0  0  0
   18.1320  -14.9154    0.0000 C   0  0  0  0  0  0  0  0  0  0  0  0
   19.3096  -14.2375    0.0000 C   0  0  0  0  0  0  0  0  0  0  0  0
   19.3114  -12.8591    0.0000 C   0  0  0  0  0  0  0  0  0  0  0  0
   18.1186  -12.1683    0.0000 C   0  0  0  0  0  0  0  0  0  0  0  0
   16.9410  -12.8461    0.0000 C   0  0  0  0  0  0  0  0  0  0  0  0
   16.9392  -14.2245    0.0000 C   0  0  0  0  0  0  0  0  0  0  0  0
   18.3120  -17.6964    0.0000 O   0  0  0  0  0  0  0  0  0  0  0  0
   19.4866  -16.9441    0.0000 C   0  0  0  0  0  0  0  0  0  0  0  0
   20.3166  -20.0168    0.0000 O   0  0  0  0  0  0  0  0  0  0  0  0
   23.8864  -19.4877    0.0000 C   0  0  0  0  0  0  0  0  0  0  0  0
   22.1827  -20.1470    0.0000 F   0  0  0  0  0  0  0  0  0  0  0  0
   24.2889  -17.1603    0.0000 N   0  0  0  0  0  0  0  0  0  0  0  0
   25.4710  -17.8949    0.0000 C   0  0  0  0  0  0  0  0  0  0  0  0
   26.6865  -17.2447    0.0000 C   0  0  0  0  0  0  0  0  0  0  0  0
   26.7312  -15.8671    0.0000 C   0  0  0  0  0  0  0  0  0  0  0  0
   25.5490  -15.1324    0.0000 N   0  0  0  0  0  0  0  0  0  0  0  0
   24.3335  -15.7825    0.0000 C   0  0  0  0  0  0  0  0  0  0  0  0
   27.9599  -15.2099    0.0000 O   0  0  0  0  0  0  0  0  0  0  0  0
   23.1649  -15.0563    0.0000 O   0  0  0  0  0  0  0  0  0  0  0  0
   28.4555  -21.2870    0.0000 N   0  0  0  0  0  0  0  0  0  0  0  0
   27.2676  -21.9858    0.0000 C   0  0  0  0  0  0  0  0  0  0  0  0
   26.0798  -21.2870    0.0000 O   0  0  0  0  0  0  0  0  0  0  0  0
   24.8220  -21.9858    0.0000 C   0  0  0  0  0  0  0  0  0  0  0  0
   27.2676  -23.4531    0.0000 O   0  0  0  0  0  0  0  0  0  0  0  0
   30.9011  -16.9548    0.0000 C   0  0  0  0  0  0  0  0  0  0  0  0
   29.7132  -17.7933    0.0000 N   0  0  0  0  0  0  0  0  0  0  0  0
   28.5952  -16.9548    0.0000 C   0  0  0  0  0  0  0  0  0  0  0  0
   29.0145  -15.6272    0.0000 C   0  0  0  0  0  0  0  0  0  0  0  0
   30.4120  -15.6272    0.0000 C   0  0  0  0  0  0  0  0  0  0  0  0
   29.7132  -19.1908    0.0000 C   0  0  0  0  0  0  0  0  0  0  0  0
   28.4555  -19.8896    0.0000 C   0  0  0  0  0  0  0  0  0  0  0  0
   30.9011  -19.8896    0.0000 O   0  0  0  0  0  0  0  0  0  0  0  0
   27.2676  -19.1209    0.0000 C   0  0  0  0  0  0  0  0  0  0  0  0
   26.0798  -19.8197    0.0000 C   0  0  0  0  0  0  0  0  0  0  0  0
   27.2676  -17.7235    0.0000 C   0  0  0  0  0  0  0  0  0  0  0  0
   32.2986  -16.9548    0.0000 C   0  0  0  0  0  0  0  0  0  0  0  0
   33.1371  -18.0728    0.0000 N   0  0  0  0  0  0  0  0  0  0  0  0
   34.4647  -17.6536    0.0000 C   0  0  0  0  0  0  0  0  0  0  0  0
   34.4647  -16.2561    0.0000 C   0  0  0  0  0  0  0  0  0  0  0  0
   33.1371  -15.8369    0.0000 N   0  0  0  0  0  0  0  0  0  0  0  0
   35.7224  -18.3523    0.0000 C   0  0  0  0  0  0  0  0  0  0  0  0
   36.9103  -17.6536    0.0000 C   0  0  0  0  0  0  0  0  0  0  0  0
   36.9103  -16.2561    0.0000 C   0  0  0  0  0  0  0  0  0  0  0  0
   35.7224  -15.5574    0.0000 C   0  0  0  0  0  0  0  0  0  0  0  0
   27.1978  -16.7452    0.0000 C   0  0  0  0  0  0  0  0  0  0  0  0
   35.7224  -19.7498    0.0000 C   0  0  0  0  0  0  0  0  0  0  0  0
   36.9801  -20.4485    0.0000 C   0  0  0  0  0  0  0  0  0  0  0  0
   38.0980  -19.7498    0.0000 C   0  0  0  0  0  0  0  0  0  0  0  0
   38.0981  -18.3523    0.0000 C   0  0  0  0  0  0  0  0  0  0  0  0
   36.9801  -21.8460    0.0000 O   0  0  0  0  0  0  0  0  0  0  0  0
   38.1680  -22.5448    0.0000 C   0  0  0  0  0  0  0  0  0  0  0  0
   39.3558  -21.8460    0.0000 C   0  0  0  0  0  0  0  0  0  0  0  0
   39.3558  -20.4485    0.0000 C   0  0  0  0  0  0  0  0  0  0  0  0
   40.6136  -22.5448    0.0000 C   0  0  0  0  0  0  0  0  0  0  0  0
   41.8014  -21.7762    0.0000 C   0  0  0  0  0  0  0  0  0  0  0  0
   41.8014  -20.3787    0.0000 C   0  0  0  0  0  0  0  0  0  0  0  0
   40.5437  -19.7498    0.0000 C   0  0  0  0  0  0  0  0  0  0  0  0
   42.9893  -22.4749    0.0000 C   0  0  0  0  0  0  0  0  0  0  0  0
   42.1508  -25.7590    0.0000 O   0  0  0  0  0  0  0  0  0  0  0  0
   42.9194  -26.8071    0.0000 C   0  0  0  0  0  0  0  0  0  0  0  0
   44.3169  -26.8071    0.0000 N   0  0  0  0  0  0  0  0  0  0  0  0
   44.9458  -25.5494    0.0000 C   0  0  0  0  0  0  0  0  0  0  0  0
   45.3650  -27.7853    0.0000 C   0  0  0  0  0  0  0  0  0  0  0  0
   46.5529  -27.1565    0.0000 C   0  0  0  0  0  0  0  0  0  0  0  0
   46.3433  -25.7590    0.0000 C   0  0  0  0  0  0  0  0  0  0  0  0
   42.2906  -28.2046    0.0000 C   0  0  0  0  0  0  0  0  0  0  0  0
   40.8931  -28.2046    0.0000 N   0  0  0  0  0  0  0  0  0  0  0  0
   40.2642  -29.3924    0.0000 C   0  0  0  0  0  0  0  0  0  0  0  0
   40.9630  -30.5803    0.0000 O   0  0  0  0  0  0  0  0  0  0  0  0
   42.9893  -29.3924    0.0000 C   0  0  0  0  0  0  0  0  0  0  0  0
   42.2906  -30.5803    0.0000 C   0  0  0  0  0  0  0  0  0  0  0  0
   42.9893  -31.7681    0.0000 C   0  0  0  0  0  0  0  0  0  0  0  0
   44.3868  -31.7681    0.0000 C   0  0  0  0  0  0  0  0  0  0  0  0
   45.0855  -30.5104    0.0000 C   0  0  0  0  0  0  0  0  0  0  0  0
   44.3868  -29.3924    0.0000 C   0  0  0  0  0  0  0  0  0  0  0  0
   43.1290  -23.8724    0.0000 N   0  0  0  0  0  0  0  0  0  0  0  0
   44.5265  -24.1519    0.0000 C   0  0  0  0  0  0  0  0  0  0  0  0
   45.2253  -22.9640    0.0000 N   0  0  0  0  0  0  0  0  0  0  0  0
   44.2470  -21.9159    0.0000 C   0  0  0  0  0  0  0  0  0  0  0  0
   38.8667  -29.3924    0.0000 O   0  0  0  0  0  0  0  0  0  0  0  0
   38.1680  -30.5803    0.0000 C   0  0  0  0  0  0  0  0  0  0  0  0
   47.8106  -27.7853    0.0000 C   0  0  0  0  0  0  0  0  0  0  0  0
   48.9985  -27.0167    0.0000 O   0  0  0  0  0  0  0  0  0  0  0  0
   50.2562  -27.6456    0.0000 C   0  0  0  0  0  0  0  0  0  0  0  0
  1  2  1  0
  2  3  1  0
  3  4  1  0
  4  5  1  0
  5  6  1  0
  2  7  1  0
  4  8  2  0
  5  9  1  6
 10 11  1  0
 11 12  1  0
 12 13  1  0
 13 14  1  0
 10 14  1  0
 15 16  2  0
 15 17  1  0
 17 18  1  0
 18 19  2  0
 19 20  1  0
 20 21  2  0
 21 22  1  0
 22 23  2  0
 18 23  1  0
 15 24  1  0
 24 25  1  0
 10 25  1  1
 11 26  1  6
 12 27  1  1
 12 28  1  0
 13 29  1  1
 29 30  1  0
 30 31  2  0
 31 32  1  0
 32 33  1  0
 33 34  1  0
 29 34  1  0
 32 35  2  0
 34 36  2  0
 15  6  1  1
 37 38  1  0
 38 39  1  0
 39 40  1  0
 38 41  2  0
 43 44  1  0
 44 45  1  0
 45 46  1  0
 46 42  1  0
 43 42  1  0
 43 47  1  0
 47 48  1  0
 47 49  2  0
 50 51  1  0
 50 52  1  0
 48 50  1  0
 48 37  1  1
 42 53  1  1
 53 54  1  0
 54 55  1  0
 55 56  2  0
 56 57  1  0
 53 57  2  0
 55 58  1  0
 58 59  2  0
 59 60  1  0
 60 61  2  0
 56 61  1  0
 44 62  1  1
 58 63  1  0
 63 64  2  0
 64 65  1  0
 65 66  2  0
 59 66  1  0
 64 67  1  0
 67 68  1  0
 68 69  1  0
 69 70  2  0
 65 70  1  0
 69 71  1  0
 71 72  2  0
 72 73  1  0
 73 74  2  0
 70 74  1  0
 72 75  1  0
 76 77  2  0
 77 78  1  0
 78 79  1  0
 78 80  1  0
 80 81  1  0
 81 82  1  0
 79 82  1  0
 77 83  1  0
 83 84  1  1
 84 85  1  0
 85 86  2  0
 87 88  2  0
 88 89  1  0
 89 90  2  0
 90 91  1  0
 91 92  2  0
 87 92  1  0
 83 87  1  0
 75 93  1  0
 93 94  1  0
 94 95  2  0
 95 96  1  0
 79 94  1  6
 85 97  1  0
 97 98  1  0
 81 99  1  6
 99100  1  0
100101  1  0
 96 75  2  0
M  END
