 
     RDKit          2D

123126  0  0  1  0  0  0  0  0999 V2000
   11.4800  -17.9900    0.0000 C   0  0  0  0  0  0  0  0  0  0  0  0
   11.4800  -16.5900    0.0000 C   0  0  0  0  0  0  0  0  0  0  0  0
   10.1485  -16.1574    0.0000 C   0  0  0  0  0  0  0  0  0  0  0  0
    9.3256  -17.2900    0.0000 C   0  0  0  0  0  0  0  0  0  0  0  0
   10.1485  -18.4226    0.0000 C   0  0  0  0  0  0  0  0  0  0  0  0
    9.7197  -14.8378    0.0000 O   0  0  0  0  0  0  0  0  0  0  0  0
    9.7197  -19.7422    0.0000 O   0  0  0  0  0  0  0  0  0  0  0  0
   12.6924  -15.8900    0.0000 C   0  0  0  0  0  0  0  0  0  0  0  0
   13.9049  -16.5900    0.0000 C   0  0  0  0  0  0  0  0  0  0  0  0
   12.6924  -18.6900    0.0000 C   0  0  0  0  0  0  0  0  0  0  0  0
   13.9049  -17.9900    0.0000 C   0  0  0  0  0  0  0  0  0  0  0  0
   15.1173  -18.6900    0.0000 C   0  0  0  0  0  0  0  0  0  0  0  0
   16.3297  -17.9900    0.0000 C   0  0  0  0  0  0  0  0  0  0  0  0
   17.5422  -18.6900    0.0000 C   0  0  0  0  0  0  0  0  0  0  0  0
   15.3049  -16.5900    0.0000 C   0  0  0  0  0  0  0  0  0  0  0  0
   16.5424  -15.8900    0.0000 C   0  0  0  0  0  0  0  0  0  0  0  0
   17.7549  -16.5900    0.0000 C   0  0  0  0  0  0  0  0  0  0  0  0
   18.9673  -15.8900    0.0000 C   0  0  0  0  0  0  0  0  0  0  0  0
   20.1797  -16.5900    0.0000 C   0  0  0  0  0  0  0  0  0  0  0  0
   21.3922  -15.8900    0.0000 N   0  0  0  0  0  0  0  0  0  0  0  0
   22.6046  -16.5900    0.0000 C   0  0  0  0  0  0  0  0  0  0  0  0
   15.1173  -20.0900    0.0000 O   0  0  0  0  0  0  0  0  0  0  0  0
   17.5422  -20.0900    0.0000 C   0  0  0  0  0  0  0  0  0  0  0  0
   16.3508  -20.7781    0.0000 C   0  0  0  0  0  0  0  0  0  0  0  0
   16.3510  -22.1781    0.0000 C   0  0  0  0  0  0  0  0  0  0  0  0
   17.5636  -22.8779    0.0000 C   0  0  0  0  0  0  0  0  0  0  0  0
   18.7550  -22.1898    0.0000 C   0  0  0  0  0  0  0  0  0  0  0  0
   18.7547  -20.7898    0.0000 C   0  0  0  0  0  0  0  0  0  0  0  0
   20.1797  -17.9899    0.0000 O   0  0  0  0  0  0  0  0  0  0  0  0
   23.8211  -15.8877    0.0000 C   0  0  0  0  0  0  0  0  0  0  0  0
   27.1995  -15.4829    0.0000 C   0  0  0  0  0  0  0  0  0  0  0  0
   25.5020  -15.4829    0.0000 C   0  0  0  0  0  0  0  0  0  0  0  0
   27.8361  -16.6145    0.0000 C   0  0  0  0  0  0  0  0  0  0  0  0
   24.8653  -16.6852    0.0000 C   0  0  0  0  0  0  0  0  0  0  0  0
   27.1995  -17.8170    0.0000 O   0  0  0  0  0  0  0  0  0  0  0  0
   29.2508  -16.6145    0.0000 O   0  0  0  0  0  0  0  0  0  0  0  0
   23.4508  -16.6852    0.0000 O   0  0  0  0  0  0  0  0  0  0  0  0
   25.5020  -17.8170    0.0000 O   0  0  0  0  0  0  0  0  0  0  0  0
   14.1400  -15.9600    0.0000 C   0  0  0  0  0  0  0  0  0  0  0  0
   15.3300  -16.6600    0.0000 C   0  0  0  0  0  0  0  0  0  0  0  0
   12.9500  -16.6600    0.0000 O   0  0  0  0  0  0  0  0  0  0  0  0
   16.5200  -15.9600    0.0000 C   0  0  0  0  0  0  0  0  0  0  0  0
   17.7100  -16.6600    0.0000 N   0  0  0  0  0  0  0  0  0  0  0  0
   18.9000  -15.9600    0.0000 C   0  0  0  0  0  0  0  0  0  0  0  0
   20.1600  -16.6600    0.0000 C   0  0  0  0  0  0  0  0  0  0  0  0
   18.9000  -14.5600    0.0000 C   0  0  0  0  0  0  0  0  0  0  0  0
   20.1600  -15.2600    0.0000 C   0  0  0  0  0  0  0  0  0  0  0  0
   15.3300  -18.0600    0.0000 O   0  0  0  0  0  0  0  0  0  0  0  0
   12.9500  -18.0600    0.0000 C   0  0  0  0  0  0  0  0  0  0  0  0
   11.8300  -18.9700    0.0000 C   0  0  0  0  0  0  0  0  0  0  0  0
   12.2500  -20.2300    0.0000 N   0  0  0  0  0  0  0  0  0  0  0  0
   13.6500  -20.2300    0.0000 S   0  0  0  0  0  0  0  0  0  0  0  0
   14.0700  -18.9700    0.0000 N   0  0  0  0  0  0  0  0  0  0  0  0
    8.1200  -16.8000    0.0000 O   0  0  0  0  0  0  0  0  0  0  0  0
    8.1200  -18.2700    0.0000 C   0  0  0  0  0  0  0  0  0  0  0  0
    9.3100  -18.9700    0.0000 C   0  0  0  0  0  0  0  0  0  0  0  0
   10.5700  -18.2700    0.0000 N   0  0  0  0  0  0  0  0  0  0  0  0
   10.5700  -16.8000    0.0000 C   0  0  0  0  0  0  0  0  0  0  0  0
    9.3100  -16.1000    0.0000 C   0  0  0  0  0  0  0  0  0  0  0  0
   28.1400  -21.7700    0.0000 O   0  0  0  0  0  0  0  0  0  0  0  0
   17.2200  -20.1600    0.0000 C   0  0  0  0  0  0  0  0  0  0  0  0
   18.4100  -20.8600    0.0000 C   0  0  0  0  0  0  0  0  0  0  0  0
   16.0300  -20.8600    0.0000 O   0  0  0  0  0  0  0  0  0  0  0  0
   19.6000  -20.1600    0.0000 C   0  0  0  0  0  0  0  0  0  0  0  0
   20.7900  -20.8600    0.0000 N   0  0  0  0  0  0  0  0  0  0  0  0
   21.9800  -20.1600    0.0000 C   0  0  0  0  0  0  0  0  0  0  0  0
   23.2400  -20.8600    0.0000 C   0  0  0  0  0  0  0  0  0  0  0  0
   21.9800  -18.7600    0.0000 C   0  0  0  0  0  0  0  0  0  0  0  0
   23.2400  -19.4600    0.0000 C   0  0  0  0  0  0  0  0  0  0  0  0
   18.4100  -22.2600    0.0000 O   0  0  0  0  0  0  0  0  0  0  0  0
   16.0300  -22.2600    0.0000 C   0  0  0  0  0  0  0  0  0  0  0  0
   14.9100  -23.1700    0.0000 C   0  0  0  0  0  0  0  0  0  0  0  0
   15.3300  -24.4300    0.0000 N   0  0  0  0  0  0  0  0  0  0  0  0
   16.7300  -24.4300    0.0000 S   0  0  0  0  0  0  0  0  0  0  0  0
   17.1500  -23.1700    0.0000 N   0  0  0  0  0  0  0  0  0  0  0  0
   11.2000  -21.0000    0.0000 O   0  0  0  0  0  0  0  0  0  0  0  0
   11.2000  -22.4700    0.0000 C   0  0  0  0  0  0  0  0  0  0  0  0
   12.3900  -23.1700    0.0000 C   0  0  0  0  0  0  0  0  0  0  0  0
   13.6500  -22.4700    0.0000 N   0  0  0  0  0  0  0  0  0  0  0  0
   13.6500  -21.0000    0.0000 C   0  0  0  0  0  0  0  0  0  0  0  0
   12.3900  -20.3000    0.0000 C   0  0  0  0  0  0  0  0  0  0  0  0
   17.2200  -20.1600    0.0000 C   0  0  0  0  0  0  0  0  0  0  0  0
   18.4100  -20.8600    0.0000 C   0  0  0  0  0  0  0  0  0  0  0  0
   19.6000  -20.1600    0.0000 C   0  0  0  0  0  0  0  0  0  0  0  0
   20.7900  -20.8600    0.0000 N   0  0  0  0  0  0  0  0  0  0  0  0
   21.9800  -20.1600    0.0000 C   0  0  0  0  0  0  0  0  0  0  0  0
   23.2400  -20.8600    0.0000 C   0  0  0  0  0  0  0  0  0  0  0  0
   21.9800  -18.7600    0.0000 C   0  0  0  0  0  0  0  0  0  0  0  0
   23.2400  -19.4600    0.0000 C   0  0  0  0  0  0  0  0  0  0  0  0
   18.4100  -22.2600    0.0000 O   0  0  0  0  0  0  0  0  0  0  0  0
   16.0300  -20.8600    0.0000 O   0  0  0  0  0  0  0  0  0  0  0  0
   16.0300  -22.2600    0.0000 C   0  0  0  0  0  0  0  0  0  0  0  0
   14.9100  -23.1700    0.0000 C   0  0  0  0  0  0  0  0  0  0  0  0
   15.3300  -24.4300    0.0000 N   0  0  0  0  0  0  0  0  0  0  0  0
   16.7300  -24.4300    0.0000 S   0  0  0  0  0  0  0  0  0  0  0  0
   17.1500  -23.1700    0.0000 N   0  0  0  0  0  0  0  0  0  0  0  0
   13.6500  -22.4700    0.0000 N   0  0  0  0  0  0  0  0  0  0  0  0
   12.3900  -23.1700    0.0000 C   0  0  0  0  0  0  0  0  0  0  0  0
   11.2000  -22.4700    0.0000 C   0  0  0  0  0  0  0  0  0  0  0  0
   11.2000  -21.0000    0.0000 O   0  0  0  0  0  0  0  0  0  0  0  0
   12.3900  -20.3000    0.0000 C   0  0  0  0  0  0  0  0  0  0  0  0
   13.6500  -21.0000    0.0000 C   0  0  0  0  0  0  0  0  0  0  0  0
   15.6800  -18.8300    0.0000 C   0  0  0  0  0  0  0  0  0  0  0  0
   16.8700  -19.5300    0.0000 C   0  0  0  0  0  0  0  0  0  0  0  0
   14.4900  -19.5300    0.0000 O   0  0  0  0  0  0  0  0  0  0  0  0
   18.0600  -18.8300    0.0000 C   0  0  0  0  0  0  0  0  0  0  0  0
   19.2500  -19.5300    0.0000 N   0  0  0  0  0  0  0  0  0  0  0  0
   20.4400  -18.8300    0.0000 C   0  0  0  0  0  0  0  0  0  0  0  0
   21.6300  -19.5300    0.0000 C   0  0  0  0  0  0  0  0  0  0  0  0
   20.4400  -17.4300    0.0000 C   0  0  0  0  0  0  0  0  0  0  0  0
   21.6300  -18.1300    0.0000 C   0  0  0  0  0  0  0  0  0  0  0  0
   16.8700  -20.9300    0.0000 O   0  0  0  0  0  0  0  0  0  0  0  0
   14.4900  -20.9300    0.0000 C   0  0  0  0  0  0  0  0  0  0  0  0
   13.3700  -21.7700    0.0000 C   0  0  0  0  0  0  0  0  0  0  0  0
   13.7900  -23.0300    0.0000 N   0  0  0  0  0  0  0  0  0  0  0  0
   15.1900  -23.0300    0.0000 S   0  0  0  0  0  0  0  0  0  0  0  0
   15.6100  -21.7700    0.0000 N   0  0  0  0  0  0  0  0  0  0  0  0
    9.7300  -19.6700    0.0000 O   0  0  0  0  0  0  0  0  0  0  0  0
    9.7300  -21.0700    0.0000 C   0  0  0  0  0  0  0  0  0  0  0  0
   10.9200  -21.7700    0.0000 C   0  0  0  0  0  0  0  0  0  0  0  0
   12.1800  -21.0700    0.0000 N   0  0  0  0  0  0  0  0  0  0  0  0
   12.1800  -19.6700    0.0000 C   0  0  0  0  0  0  0  0  0  0  0  0
   10.9200  -18.9700    0.0000 C   0  0  0  0  0  0  0  0  0  0  0  0
  1  2  1  0
  2  3  1  0
  3  4  1  0
  4  5  1  0
  1  5  1  0
  3  6  1  6
  5  7  1  6
  2  8  1  6
  8  9  1  0
  1 10  1  1
 10 11  2  0
 11 12  1  0
 12 13  1  0
 13 14  1  0
  9 15  2  0
 15 16  1  0
 16 17  1  0
 17 18  1  0
 18 19  1  0
 19 20  1  0
 20 21  1  0
 12 22  1  6
 14 23  1  0
 23 24  2  0
 24 25  1  0
 25 26  2  0
 26 27  1  0
 27 28  2  0
 23 28  1  0
 19 29  2  0
 21 30  1  0
 31 32  2  0
 31 33  1  0
 32 34  1  0
 33 35  1  0
 33 36  2  0
 34 37  1  0
 34 38  2  0
 39 40  1  0
 39 41  1  0
 40 42  1  0
 42 43  1  0
 43 44  1  0
 44 45  1  0
 44 46  1  0
 44 47  1  0
 40 48  1  6
 41 49  1  0
 49 50  1  0
 50 51  2  0
 51 52  1  0
 52 53  1  0
 49 53  2  0
 54 55  1  0
 55 56  1  0
 56 57  1  0
 57 58  1  0
 58 59  1  0
 54 59  1  0
 57 50  1  0
 61 62  1  0
 61 63  1  0
 62 64  1  0
 64 65  1  0
 65 66  1  0
 66 67  1  0
 66 68  1  0
 66 69  1  0
 62 70  1  6
 63 71  1  0
 71 72  1  0
 72 73  2  0
 73 74  1  0
 74 75  1  0
 71 75  2  0
 76 77  1  0
 77 78  1  0
 78 79  1  0
 79 80  1  0
 80 81  1  0
 76 81  1  0
 79 72  1  0
 82 83  1  0
 82 91  1  0
 83 84  1  0
 84 85  1  0
 85 86  1  0
 86 87  1  0
 86 88  1  0
 86 89  1  0
 83 90  1  6
 91 92  1  0
 92 93  1  0
 93 94  2  0
 94 95  1  0
 95 96  1  0
 92 96  2  0
100 99  1  0
 99 98  1  0
 98 97  1  0
 97102  1  0
102101  1  0
100101  1  0
 97 93  1  0
103104  1  0
103105  1  0
104106  1  0
106107  1  0
107108  1  0
108109  1  0
108110  1  0
108111  1  0
104112  1  6
105113  1  0
113114  1  0
114115  2  0
115116  1  0
116117  1  0
113117  2  0
118119  1  0
119120  1  0
120121  1  0
121122  1  0
122123  1  0
118123  1  0
121114  1  0
M  END
