 
     RDKit          2D

131143  0  1  1  0  0  0  0  0999 V2000
   33.1161  -16.8714    0.0000 S   0  0  0  0  0  0  0  0  0  0  0  0
   31.7182  -16.8656    0.0000 O   0  0  0  0  0  0  0  0  0  0  0  0
   34.5138  -16.8714    0.0000 O   0  0  0  0  0  0  0  0  0  0  0  0
   33.1102  -15.4737    0.0000 O   0  0  0  0  0  0  0  0  0  0  0  0
   33.1102  -18.2750    0.0000 O   0  0  0  0  0  0  0  0  0  0  0  0
   23.3800  -16.8700    0.0000 C   0  0  0  0  0  0  0  0  0  0  0  0
   23.3800  -18.3400    0.0000 C   0  0  0  0  0  0  0  0  0  0  0  0
   24.5700  -16.1700    0.0000 C   0  0  0  0  0  0  0  0  0  0  0  0
   22.1900  -16.3800    0.0000 N   0  0  0  0  0  0  0  0  0  0  0  0
   22.1200  -18.7600    0.0000 N   0  0  0  0  0  0  0  0  0  0  0  0
   24.5700  -19.1100    0.0000 N   0  0  0  0  0  0  0  0  0  0  0  0
   24.5700  -14.8400    0.0000 N   0  0  0  0  0  0  0  0  0  0  0  0
   25.8300  -16.9400    0.0000 N   0  0  0  0  0  0  0  0  0  0  0  0
   21.3500  -17.5000    0.0000 C   0  0  0  0  0  0  0  0  0  0  0  0
   21.0000  -19.6700    0.0000 C   0  0  0  0  0  0  0  0  0  0  0  0
   25.8300  -18.4100    0.0000 C   0  0  0  0  0  0  0  0  0  0  0  0
   25.8300  -14.1400    0.0000 C   0  0  0  0  0  0  0  0  0  0  0  0
   19.8100  -18.9000    0.0000 C   0  0  0  0  0  0  0  0  0  0  0  0
   20.5800  -21.0000    0.0000 C   0  0  0  0  0  0  0  0  0  0  0  0
   27.0200  -19.1800    0.0000 N   0  0  0  0  0  0  0  0  0  0  0  0
   27.2300  -14.2100    0.0000 C   0  0  0  0  0  0  0  0  0  0  0  0
   26.5300  -12.9500    0.0000 C   0  0  0  0  0  0  0  0  0  0  0  0
   18.7600  -19.6700    0.0000 C   0  0  0  0  0  0  0  0  0  0  0  0
   19.2500  -21.0000    0.0000 C   0  0  0  0  0  0  0  0  0  0  0  0
   17.4300  -19.3200    0.0000 C   0  0  0  0  0  0  0  0  0  0  0  0
   16.3800  -20.1600    0.0000 O   0  0  0  0  0  0  0  0  0  0  0  0
   23.3800  -16.8700    0.0000 C   0  0  0  0  0  0  0  0  0  0  0  0
   23.3800  -18.3400    0.0000 C   0  0  0  0  0  0  0  0  0  0  0  0
   22.1200  -18.7600    0.0000 N   0  0  0  0  0  0  0  0  0  0  0  0
   21.0000  -19.6700    0.0000 C   0  0  0  0  0  0  0  0  0  0  0  0
   19.8100  -18.9000    0.0000 C   0  0  0  0  0  0  0  0  0  0  0  0
   18.7600  -19.6700    0.0000 C   0  0  0  0  0  0  0  0  0  0  0  0
   17.4300  -19.3200    0.0000 C   0  0  0  0  0  0  0  0  0  0  0  0
   16.3800  -20.1600    0.0000 O   0  0  0  0  0  0  0  0  0  0  0  0
   19.2500  -21.0000    0.0000 C   0  0  0  0  0  0  0  0  0  0  0  0
   20.5800  -21.0000    0.0000 C   0  0  0  0  0  0  0  0  0  0  0  0
   21.3500  -17.5000    0.0000 C   0  0  0  0  0  0  0  0  0  0  0  0
   22.1900  -16.3800    0.0000 N   0  0  0  0  0  0  0  0  0  0  0  0
   24.5700  -19.1100    0.0000 N   0  0  0  0  0  0  0  0  0  0  0  0
   25.8300  -18.4100    0.0000 C   0  0  0  0  0  0  0  0  0  0  0  0
   27.0200  -19.1800    0.0000 N   0  0  0  0  0  0  0  0  0  0  0  0
   25.8300  -16.9400    0.0000 N   0  0  0  0  0  0  0  0  0  0  0  0
   24.5700  -16.1700    0.0000 C   0  0  0  0  0  0  0  0  0  0  0  0
   24.5700  -14.8400    0.0000 N   0  0  0  0  0  0  0  0  0  0  0  0
   25.8300  -14.1400    0.0000 C   0  0  0  0  0  0  0  0  0  0  0  0
   27.2300  -14.2100    0.0000 C   0  0  0  0  0  0  0  0  0  0  0  0
   26.5300  -12.9500    0.0000 C   0  0  0  0  0  0  0  0  0  0  0  0
   23.8170  -14.6900    0.0000 C   0  0  0  0  0  0  0  0  0  0  0  0
   23.7804  -16.2205    0.0000 C   0  0  0  0  0  0  0  0  0  0  0  0
   25.0169  -14.0352    0.0000 C   0  0  0  0  0  0  0  0  0  0  0  0
   22.6209  -14.2394    0.0000 N   0  0  0  0  0  0  0  0  0  0  0  0
   22.5468  -16.6128    0.0000 N   0  0  0  0  0  0  0  0  0  0  0  0
   24.9874  -16.9825    0.0000 N   0  0  0  0  0  0  0  0  0  0  0  0
   24.9742  -12.6601    0.0000 N   0  0  0  0  0  0  0  0  0  0  0  0
   26.2927  -14.8134    0.0000 N   0  0  0  0  0  0  0  0  0  0  0  0
   21.7300  -15.3835    0.0000 C   0  0  0  0  0  0  0  0  0  0  0  0
   21.3918  -17.5530    0.0000 C   0  0  0  0  0  0  0  0  0  0  0  0
   26.3325  -16.2972    0.0000 C   0  0  0  0  0  0  0  0  0  0  0  0
   26.2749  -11.9849    0.0000 C   0  0  0  0  0  0  0  0  0  0  0  0
   20.2274  -16.7385    0.0000 C   0  0  0  0  0  0  0  0  0  0  0  0
   21.0014  -18.8162    0.0000 C   0  0  0  0  0  0  0  0  0  0  0  0
   27.4571  -17.0274    0.0000 N   0  0  0  0  0  0  0  0  0  0  0  0
   27.6665  -12.0101    0.0000 C   0  0  0  0  0  0  0  0  0  0  0  0
   26.9828  -10.7806    0.0000 C   0  0  0  0  0  0  0  0  0  0  0  0
   19.1513  -17.5594    0.0000 C   0  0  0  0  0  0  0  0  0  0  0  0
   19.6159  -18.8564    0.0000 C   0  0  0  0  0  0  0  0  0  0  0  0
   17.8359  -17.1879    0.0000 C   0  0  0  0  0  0  0  0  0  0  0  0
   16.7496  -18.0561    0.0000 O   0  0  0  0  0  0  0  0  0  0  0  0
   30.8546  -17.5451    0.0000 C   0  0  0  0  0  0  0  0  0  0  0  0
   32.0651  -16.8462    0.0000 C   0  0  0  0  0  0  0  0  0  0  0  0
   33.2755  -17.5451    0.0000 C   0  0  0  0  0  0  0  0  0  0  0  0
   34.4860  -16.8462    0.0000 C   0  0  0  0  0  0  0  0  0  0  0  0
   35.6965  -17.5451    0.0000 O   0  0  0  0  0  0  0  0  0  0  0  0
   30.8546  -18.9428    0.0000 O   0  0  0  0  0  0  0  0  0  0  0  0
   34.4860  -15.4485    0.0000 O   0  0  0  0  0  0  0  0  0  0  0  0
   29.8663  -16.5568    0.0000 O   0  0  0  0  0  0  0  0  0  0  0  0
   23.2400  -16.8700    0.0000 C   0  0  0  0  0  0  0  0  0  0  0  0
   23.2400  -18.3400    0.0000 C   0  0  0  0  0  0  0  0  0  0  0  0
   24.4300  -16.1700    0.0000 C   0  0  0  0  0  0  0  0  0  0  0  0
   22.0500  -16.3800    0.0000 N   0  0  0  0  0  0  0  0  0  0  0  0
   21.9800  -18.7600    0.0000 N   0  0  0  0  0  0  0  0  0  0  0  0
   24.4300  -19.1100    0.0000 N   0  0  0  0  0  0  0  0  0  0  0  0
   24.4300  -14.8400    0.0000 N   0  0  0  0  0  0  0  0  0  0  0  0
   25.6900  -16.9400    0.0000 N   0  0  0  0  0  0  0  0  0  0  0  0
   21.2100  -17.5000    0.0000 C   0  0  0  0  0  0  0  0  0  0  0  0
   20.8600  -19.6700    0.0000 C   0  0  0  0  0  0  0  0  0  0  0  0
   25.6900  -18.4100    0.0000 C   0  0  0  0  0  0  0  0  0  0  0  0
   25.6900  -14.1400    0.0000 C   0  0  0  0  0  0  0  0  0  0  0  0
   19.6700  -18.9000    0.0000 C   0  0  0  0  0  0  0  0  0  0  0  0
   20.4400  -21.0000    0.0000 C   0  0  0  0  0  0  0  0  0  0  0  0
   26.8800  -19.1800    0.0000 N   0  0  0  0  0  0  0  0  0  0  0  0
   27.0900  -14.2100    0.0000 C   0  0  0  0  0  0  0  0  0  0  0  0
   26.3900  -12.9500    0.0000 C   0  0  0  0  0  0  0  0  0  0  0  0
   18.6200  -19.6700    0.0000 C   0  0  0  0  0  0  0  0  0  0  0  0
   19.1100  -21.0000    0.0000 C   0  0  0  0  0  0  0  0  0  0  0  0
   17.2900  -19.3200    0.0000 C   0  0  0  0  0  0  0  0  0  0  0  0
   16.2400  -20.1600    0.0000 O   0  0  0  0  0  0  0  0  0  0  0  0
   19.1100  -17.9200    0.0000 C   0  0  0  0  0  0  0  0  0  0  0  0
   17.9900  -17.0800    0.0000 O   0  0  0  0  0  0  0  0  0  0  0  0
   18.6900  -19.2500    0.0000 C   0  0  0  0  0  0  0  0  0  0  0  0
   16.8700  -17.9200    0.0000 C   0  0  0  0  0  0  0  0  0  0  0  0
   17.2900  -19.2500    0.0000 S   0  0  0  0  0  0  0  0  0  0  0  0
   15.6800  -17.2900    0.0000 C   0  0  0  0  0  0  0  0  0  0  0  0
   14.3500  -18.1300    0.0000 O   0  0  0  0  0  0  0  0  0  0  0  0
   20.3000  -15.8200    0.0000 C   0  0  0  0  0  0  0  0  0  0  0  0
   20.3000  -17.2200    0.0000 N   0  0  0  0  0  0  0  0  0  0  0  0
   21.4900  -17.9200    0.0000 C   0  0  0  0  0  0  0  0  0  0  0  0
   22.7500  -17.2200    0.0000 N   0  0  0  0  0  0  0  0  0  0  0  0
   22.7500  -15.8200    0.0000 C   0  0  0  0  0  0  0  0  0  0  0  0
   21.4900  -15.1200    0.0000 C   0  0  0  0  0  0  0  0  0  0  0  0
   21.4900  -19.3200    0.0000 O   0  0  0  0  0  0  0  0  0  0  0  0
   23.9400  -15.1200    0.0000 N   0  0  0  0  0  0  0  0  0  0  0  0
   18.8657  -16.2961    0.0000 C   0  0  0  0  0  0  0  0  0  0  0  0
   20.5359  -15.5648    0.0000 N   0  0  0  0  0  0  0  0  0  0  0  0
   18.4295  -17.5962    0.0000 C   0  0  0  0  0  0  0  0  0  0  0  0
   17.7601  -15.4854    0.0000 O   0  0  0  0  0  0  0  0  0  0  0  0
   21.6329  -16.2525    0.0000 C   0  0  0  0  0  0  0  0  0  0  0  0
   20.4803  -14.1952    0.0000 C   0  0  0  0  0  0  0  0  0  0  0  0
   17.0654  -17.5917    0.0000 C   0  0  0  0  0  0  0  0  0  0  0  0
   16.6491  -16.2888    0.0000 C   0  0  0  0  0  0  0  0  0  0  0  0
   22.8245  -15.5863    0.0000 N   0  0  0  0  0  0  0  0  0  0  0  0
   21.6194  -17.6179    0.0000 O   0  0  0  0  0  0  0  0  0  0  0  0
   21.6659  -13.5204    0.0000 C   0  0  0  0  0  0  0  0  0  0  0  0
   16.2659  -18.6975    0.0000 N   0  0  0  0  0  0  0  0  0  0  0  0
   15.3431  -15.8696    0.0000 C   0  0  0  0  0  0  0  0  0  0  0  0
   22.8512  -14.2198    0.0000 C   0  0  0  0  0  0  0  0  0  0  0  0
   21.6815  -12.1564    0.0000 C   0  0  0  0  0  0  0  0  0  0  0  0
   14.3229  -16.7755    0.0000 O   0  0  0  0  0  0  0  0  0  0  0  0
   24.0708  -13.6122    0.0000 O   0  0  0  0  0  0  0  0  0  0  0  0
   15.3644  -19.7657    0.0000 N   0  0  0  0  0  0  0  0  0  0  0  0
   14.3822  -20.9233    0.0000 N   0  0  0  0  0  0  0  0  0  0  0  0
  1  2  1  0
  1  3  1  0
  1  4  2  0
  1  5  2  0
  6  7  2  0
  6  8  1  0
  6  9  1  0
  7 10  1  0
  7 11  1  0
  8 12  1  0
  8 13  2  0
  9 14  2  0
 15 10  1  1
 11 16  2  0
 12 17  1  0
 15 18  1  0
 15 19  1  0
 16 20  1  0
 17 21  1  0
 17 22  1  0
 18 23  1  0
 19 24  2  0
 23 25  1  1
 25 26  1  0
 10 14  1  0
 13 16  1  0
 21 22  1  0
 23 24  1  0
 27 28  2  0
 27 43  1  0
 27 38  1  0
 28 29  1  0
 28 39  1  0
 43 44  1  0
 43 42  2  0
 38 37  2  0
 30 29  1  1
 39 40  2  0
 44 45  1  0
 30 31  1  0
 30 36  1  0
 40 41  1  0
 45 46  1  0
 45 47  1  0
 31 32  1  0
 36 35  2  0
 32 33  1  1
 33 34  1  0
 29 37  1  0
 42 40  1  0
 46 47  1  0
 32 35  1  0
 48 49  2  0
 48 50  1  0
 48 51  1  0
 49 52  1  0
 49 53  1  0
 50 54  1  0
 50 55  2  0
 51 56  2  0
 57 52  1  1
 53 58  2  0
 54 59  1  0
 57 60  1  0
 57 61  1  0
 58 62  1  0
 59 63  1  0
 59 64  1  0
 60 65  1  0
 61 66  2  0
 65 67  1  1
 67 68  1  0
 52 56  1  0
 55 58  1  0
 63 64  1  0
 65 66  1  0
 69 70  1  0
 70 71  1  0
 71 72  1  0
 72 73  1  0
 69 74  2  0
 72 75  2  0
 69 76  1  0
 77 78  2  0
 77 79  1  0
 77 80  1  0
 78 81  1  0
 78 82  1  0
 79 83  1  0
 79 84  2  0
 80 85  2  0
 86 81  1  1
 82 87  2  0
 83 88  1  0
 86 89  1  0
 86 90  1  0
 87 91  1  0
 88 92  1  0
 88 93  1  0
 89 94  1  0
 90 95  2  0
 94 96  1  1
 96 97  1  0
 81 85  1  0
 84 87  1  0
 92 93  1  0
 94 95  1  0
 98 99  1  0
 98100  1  0
 99101  1  0
100102  1  0
101103  1  6
103104  1  0
101102  1  0
105106  1  0
106107  1  0
107108  1  0
108109  2  0
109110  1  0
105110  2  0
 98106  1  6
107111  2  0
109112  1  0
113114  1  1
113115  1  0
113116  1  0
114117  1  0
114118  1  0
115119  1  0
116120  1  0
117121  1  0
117122  2  0
118123  2  0
119124  1  6
120125  1  1
121126  1  0
123127  1  0
125128  1  0
126129  2  0
119120  1  0
123126  1  0
124130  2  0
130131  2  0
M  CHG  2 130   1 131  -1
M  STY  1   1 MUL
M  SLB  1   1   1
M  SCN  1   1 HT 
M  SAL   1 15   6   7   8   9  10  11  12  13  14  15  16  17  18  19  20
M  SAL   1 15  21  22  23  24  25  26  27  28  29  30  31  32  33  34  35
M  SAL   1 12  36  37  38  39  40  41  42  43  44  45  46  47
M  SPA   1 15   6   7  10  15  18  23  25  26  24  19  14   9  11  16  20
M  SPA   1  6  13   8  12  17  21  22
M  SDI   1  4   13.6500  -20.7200   13.6500  -13.1600
M  SDI   1  4   29.4000  -13.1600   29.4000  -20.7200
M  SMT   1 2
M  END
