 
     RDKit          2D

 60 56  0  1  0  0  0  0  0  0999 V2000
   29.9425  -25.6767    0.0000 O   0  0  0  0  0  0  0  0  0  0  0  0
   26.3872  -22.7066    0.0000 Na  0  0  0  0  0 15  0  0  0  0  0  0
   22.2600  -24.5000    0.0000 P   0  0  0  0  0  0  0  0  0  0  0  0
   23.5900  -24.5000    0.0000 C   0  0  0  0  0  0  0  0  0  0  0  0
   23.5900  -22.6100    0.0000 C   0  0  0  0  0  0  0  0  0  0  0  0
   23.5900  -25.8300    0.0000 O   0  0  0  0  0  0  0  0  0  0  0  0
   24.9900  -24.5000    0.0000 P   0  0  0  0  0  0  0  0  0  0  0  0
   26.3200  -24.5000    0.0000 O   0  0  0  0  0  0  0  0  0  0  0  0
   20.8600  -24.5000    0.0000 O   0  0  0  0  0  0  0  0  0  0  0  0
   22.2600  -23.1000    0.0000 O   0  0  0  0  0  0  0  0  0  0  0  0
   24.9900  -23.1000    0.0000 O   0  0  0  0  0  0  0  0  0  0  0  0
   24.7800  -21.9800    0.0000 C   0  0  0  0  0  0  0  0  0  0  0  0
   24.7800  -20.5800    0.0000 C   0  0  0  0  0  0  0  0  0  0  0  0
   25.9700  -19.8800    0.0000 N   0  0  0  0  0  0  0  0  0  0  0  0
   22.2600  -25.8300    0.0000 O   0  0  0  0  0  0  0  0  0  0  0  0
   24.9900  -25.8300    0.0000 O   0  0  0  0  0  0  0  0  0  0  0  0
   29.9425  -25.6767    0.0000 O   0  0  0  0  0  0  0  0  0  0  0  0
   29.9425  -25.6767    0.0000 O   0  0  0  0  0  0  0  0  0  0  0  0
   20.5100  -20.4400    0.0000 P   0  0  0  0  0  0  0  0  0  0  0  0
   21.9100  -20.4400    0.0000 C   0  0  0  0  0  0  0  0  0  0  0  0
   21.9100  -18.5500    0.0000 C   0  0  0  0  0  0  0  0  0  0  0  0
   21.9100  -21.8400    0.0000 O   0  0  0  0  0  0  0  0  0  0  0  0
   23.3100  -20.4400    0.0000 P   0  0  0  0  0  0  0  0  0  0  0  0
   24.7100  -20.4400    0.0000 O   0  0  0  0  0  0  0  0  0  0  0  0
   19.1100  -20.4400    0.0000 O   0  0  0  0  0  0  0  0  0  0  0  0
   20.5100  -19.0400    0.0000 O   0  0  0  0  0  0  0  0  0  0  0  0
   23.3100  -19.0400    0.0000 O   0  0  0  0  0  0  0  0  0  0  0  0
   23.1224  -17.8500    0.0000 C   0  0  0  0  0  0  0  0  0  0  0  0
   23.1225  -16.4502    0.0000 C   0  0  0  0  0  0  0  0  0  0  0  0
   24.3181  -15.7598    0.0000 N   0  0  0  0  0  0  0  0  0  0  0  0
   20.5100  -21.8400    0.0000 O   0  0  0  0  0  0  0  0  0  0  0  0
   23.3100  -21.8400    0.0000 O   0  0  0  0  0  0  0  0  0  0  0  0
   21.3500  -18.5500    0.0000 C   0  0  0  0  0  0  0  0  0  0  0  0
   21.3500  -19.9500    0.0000 C   0  0  0  0  0  0  0  0  0  0  0  0
   22.6100  -20.6500    0.0000 C   0  0  0  0  0  0  0  0  0  0  0  0
   23.8000  -19.9500    0.0000 C   0  0  0  0  0  0  0  0  0  0  0  0
   23.8000  -18.5500    0.0000 C   0  0  0  0  0  0  0  0  0  0  0  0
   22.6100  -17.8500    0.0000 C   0  0  0  0  0  0  0  0  0  0  0  0
   25.1300  -20.4400    0.0000 C   0  0  0  0  0  0  0  0  0  0  0  0
   25.9700  -19.2500    0.0000 C   0  0  0  0  0  0  0  0  0  0  0  0
   25.1300  -18.1300    0.0000 C   0  0  0  0  0  0  0  0  0  0  0  0
   25.5500  -16.8000    0.0000 C   0  0  0  0  0  0  0  0  0  0  0  0
   26.9500  -16.8000    0.0000 C   0  0  0  0  0  0  0  0  0  0  0  0
   24.7800  -15.6800    0.0000 C   0  0  0  0  0  0  0  0  0  0  0  0
   27.6500  -15.6100    0.0000 C   0  0  0  0  0  0  0  0  0  0  0  0
   29.0500  -15.6100    0.0000 C   0  0  0  0  0  0  0  0  0  0  0  0
   29.7500  -14.4200    0.0000 C   0  0  0  0  0  0  0  0  0  0  0  0
   31.1500  -14.4200    0.0000 C   0  0  0  0  0  0  0  0  0  0  0  0
   23.8000  -17.1500    0.0000 C   0  0  0  0  0  0  0  0  0  0  0  0
   22.6100  -22.0500    0.0000 C   0  0  0  0  0  0  0  0  0  0  0  0
   21.3500  -22.8200    0.0000 C   0  0  0  0  0  0  0  0  0  0  0  0
   21.3500  -24.1500    0.0000 C   0  0  0  0  0  0  0  0  0  0  0  0
   20.1600  -24.8500    0.0000 C   0  0  0  0  0  0  0  0  0  0  0  0
   20.1600  -26.2500    0.0000 C   0  0  0  0  0  0  0  0  0  0  0  0
   21.3500  -26.9500    0.0000 C   0  0  0  0  0  0  0  0  0  0  0  0
   22.5400  -26.2500    0.0000 C   0  0  0  0  0  0  0  0  0  0  0  0
   22.5400  -24.8500    0.0000 C   0  0  0  0  0  0  0  0  0  0  0  0
   23.8000  -24.1500    0.0000 C   0  0  0  0  0  0  0  0  0  0  0  0
   18.9700  -26.9500    0.0000 O   0  0  0  0  0  0  0  0  0  0  0  0
   29.0500  -13.2300    0.0000 C   0  0  0  0  0  0  0  0  0  0  0  0
  3  4  1  0
  4  5  1  0
  4  6  1  0
  4  7  1  0
  7  8  1  0
  3  9  1  0
  3 10  2  0
  7 11  2  0
  5 12  1  0
 12 13  1  0
 13 14  1  0
  3 15  1  0
  7 16  1  0
 19 20  1  0
 20 21  1  0
 20 22  1  0
 20 23  1  0
 23 24  1  0
 19 25  1  0
 19 26  2  0
 23 27  2  0
 21 28  1  0
 28 29  1  0
 29 30  1  0
 19 31  1  0
 23 32  1  0
 33 34  1  0
 34 35  1  0
 35 36  1  0
 36 37  1  0
 37 38  1  0
 33 38  1  0
 36 39  1  1
 39 40  1  0
 41 40  1  1
 37 41  1  0
 41 42  1  0
 42 43  1  0
 42 44  1  6
 43 45  1  0
 45 46  1  0
 46 47  1  0
 47 48  1  0
 37 49  1  1
 35 50  2  0
 50 51  1  0
 51 52  2  0
 52 53  1  0
 53 54  1  0
 54 55  1  0
 55 56  1  0
 56 57  1  0
 52 57  1  0
 57 58  2  0
 54 59  1  6
 47 60  1  0
M  CHG  2   2   1   8  -1
M  STY  1   1 MUL
M  SLB  1   1   1
M  SCN  1   1 HT 
M  SAL   1  3   1  17  18
M  SPA   1  1   1
M  SDI   1  4   28.2800  -26.7400   28.2800  -24.7800
M  SDI   1  4   30.3100  -24.7800   30.3100  -26.7400
M  SMT   1 3
M  END
