 
     RDKit          2D

 51 53  0  0  0  0  0  0  0  0999 V2000
   15.9600  -18.2700    0.0000 C   0  0  0  0  0  0  0  0  0  0  0  0
   15.1200  -17.1500    0.0000 C   0  0  0  0  0  0  0  0  0  0  0  0
   15.4000  -15.7500    0.0000 C   0  0  0  0  0  0  0  0  0  0  0  0
   16.7300  -15.1900    0.0000 C   0  0  0  0  0  0  0  0  0  0  0  0
   17.3600  -18.2700    0.0000 C   0  0  0  0  0  0  0  0  0  0  0  0
   17.9200  -15.8200    0.0000 C   0  0  0  0  0  0  0  0  0  0  0  0
   18.2700  -17.2200    0.0000 C   0  0  0  0  0  0  0  0  0  0  0  0
   14.4200  -14.8400    0.0000 C   0  0  0  0  0  0  0  0  0  0  0  0
   13.0900  -15.1900    0.0000 C   0  0  0  0  0  0  0  0  0  0  0  0
   12.7400  -16.5900    0.0000 C   0  0  0  0  0  0  0  0  0  0  0  0
   13.7200  -17.5000    0.0000 C   0  0  0  0  0  0  0  0  0  0  0  0
   19.6000  -17.6400    0.0000 C   0  0  0  0  0  0  0  0  0  0  0  0
   20.6500  -16.7300    0.0000 C   0  0  0  0  0  0  0  0  0  0  0  0
   20.3700  -15.3300    0.0000 C   0  0  0  0  0  0  0  0  0  0  0  0
   18.9700  -14.9100    0.0000 N   0  0  0  0  0  0  0  0  0  0  0  0
   16.7300  -13.7900    0.0000 C   0  0  0  0  0  0  0  0  0  0  0  0
   11.3979  -16.9886    0.0000 Cl  0  0  0  0  0  0  0  0  0  0  0  0
   17.9424  -13.0900    0.0000 C   0  0  0  0  0  0  0  0  0  0  0  0
   17.9424  -11.6900    0.0000 C   0  0  0  0  0  0  0  0  0  0  0  0
   16.7300  -10.9900    0.0000 N   0  0  0  0  0  0  0  0  0  0  0  0
   15.5176  -11.6900    0.0000 C   0  0  0  0  0  0  0  0  0  0  0  0
   15.5176  -13.0900    0.0000 C   0  0  0  0  0  0  0  0  0  0  0  0
   36.2600  -21.0700    0.0000 S   0  0  0  0  0  0  0  0  0  0  0  0
   36.2600  -19.6700    0.0000 O   0  0  0  0  0  0  0  0  0  0  0  0
   36.2600  -22.4700    0.0000 O   0  0  0  0  0  0  0  0  0  0  0  0
   34.8600  -21.0700    0.0000 O   0  0  0  0  0  0  0  0  0  0  0  0
   37.6600  -21.0700    0.0000 O   0  0  0  0  0  0  0  0  0  0  0  0
   25.6900  -21.0700    0.0000 C   0  0  0  0  0  0  0  0  0  0  0  0
   25.6900  -22.4700    0.0000 C   0  0  0  0  0  0  0  0  0  0  0  0
   24.5000  -23.1700    0.0000 C   0  0  0  0  0  0  0  0  0  0  0  0
   23.2400  -22.4700    0.0000 C   0  0  0  0  0  0  0  0  0  0  0  0
   23.2400  -21.0700    0.0000 C   0  0  0  0  0  0  0  0  0  0  0  0
   24.5000  -20.3700    0.0000 C   0  0  0  0  0  0  0  0  0  0  0  0
   26.8800  -20.3700    0.0000 C   0  0  0  0  0  0  0  0  0  0  0  0
   28.0700  -21.0700    0.0000 C   0  0  0  0  0  0  0  0  0  0  0  0
   29.2600  -20.3700    0.0000 N   0  0  0  0  0  0  0  0  0  0  0  0
   28.0700  -22.4700    0.0000 C   0  0  0  0  0  0  0  0  0  0  0  0
   26.8800  -18.9700    0.0000 O   0  0  0  0  0  0  0  0  0  0  0  0
   30.4781  -21.0601    0.0000 C   0  0  0  0  0  0  0  0  0  0  0  0
   25.6900  -21.0700    0.0000 C   0  0  0  0  0  0  0  0  0  0  0  0
   25.6900  -22.4700    0.0000 C   0  0  0  0  0  0  0  0  0  0  0  0
   24.5000  -23.1700    0.0000 C   0  0  0  0  0  0  0  0  0  0  0  0
   23.2400  -22.4700    0.0000 C   0  0  0  0  0  0  0  0  0  0  0  0
   23.2400  -21.0700    0.0000 C   0  0  0  0  0  0  0  0  0  0  0  0
   24.5000  -20.3700    0.0000 C   0  0  0  0  0  0  0  0  0  0  0  0
   26.8800  -20.3700    0.0000 C   0  0  0  0  0  0  0  0  0  0  0  0
   28.0700  -21.0700    0.0000 C   0  0  0  0  0  0  0  0  0  0  0  0
   29.2600  -20.3700    0.0000 N   0  0  0  0  0  0  0  0  0  0  0  0
   30.4781  -21.0601    0.0000 C   0  0  0  0  0  0  0  0  0  0  0  0
   28.0700  -22.4700    0.0000 C   0  0  0  0  0  0  0  0  0  0  0  0
   26.8800  -18.9700    0.0000 O   0  0  0  0  0  0  0  0  0  0  0  0
  3  4  1  0
  1  5  1  0
  4  6  1  0
  2  3  2  0
  5  7  1  0
  1  2  1  0
  6  7  2  0
  3  8  1  0
  8  9  2  0
  9 10  1  0
 10 11  2  0
  2 11  1  0
  7 12  1  0
 12 13  2  0
 13 14  1  0
 14 15  2  0
  6 15  1  0
  4 16  2  3
 10 17  1  0
 16 18  1  0
 18 19  1  0
 19 20  1  0
 20 21  1  0
 21 22  1  0
 16 22  1  0
 23 24  2  0
 23 25  2  0
 23 26  1  0
 23 27  1  0
 28 29  2  0
 29 30  1  0
 30 31  2  0
 31 32  1  0
 32 33  2  0
 28 33  1  0
 28 34  1  0
 34 35  1  0
 35 36  1  0
 35 37  1  1
 34 38  1  6
 36 39  1  0
 40 41  2  0
 41 42  1  0
 42 43  2  0
 43 44  1  0
 44 45  2  0
 40 45  1  0
 40 46  1  0
 46 47  1  0
 47 48  1  0
 47 50  1  1
 46 51  1  6
 48 49  1  0
M  END
