 
     RDKit          2D

256281  0  0  1  0  0  0  0  0999 V2000
   21.4200  -21.4900    0.0000 C   0  0  0  0  0  0  0  0  0  0  0  0
   21.4200  -22.8900    0.0000 C   0  0  0  0  0  0  0  0  0  0  0  0
   22.6100  -23.5900    0.0000 C   0  0  0  0  0  0  0  0  0  0  0  0
   23.8700  -22.8900    0.0000 C   0  0  0  0  0  0  0  0  0  0  0  0
   23.8700  -21.4900    0.0000 C   0  0  0  0  0  0  0  0  0  0  0  0
   22.6100  -20.7900    0.0000 C   0  0  0  0  0  0  0  0  0  0  0  0
   25.0600  -20.7900    0.0000 C   0  0  0  0  0  0  0  0  0  0  0  0
   26.3200  -21.4900    0.0000 C   0  0  0  0  0  0  0  0  0  0  0  0
   27.5800  -20.7900    0.0000 C   0  0  0  0  0  0  0  0  0  0  0  0
   27.5800  -19.3900    0.0000 C   0  0  0  0  0  0  0  0  0  0  0  0
   26.3900  -18.6900    0.0000 C   0  0  0  0  0  0  0  0  0  0  0  0
   25.0600  -19.3900    0.0000 C   0  0  0  0  0  0  0  0  0  0  0  0
   20.2300  -23.5900    0.0000 C   0  0  0  0  0  0  0  0  0  0  0  0
   18.9000  -23.1700    0.0000 C   0  0  0  0  0  0  0  0  0  0  0  0
   18.0600  -24.3600    0.0000 N   0  0  0  0  0  0  0  0  0  0  0  0
   18.9000  -25.4800    0.0000 C   0  0  0  0  0  0  0  0  0  0  0  0
   20.2300  -25.0600    0.0000 N   0  0  0  0  0  0  0  0  0  0  0  0
   28.7700  -18.6900    0.0000 C   0  0  0  0  0  0  0  0  0  0  0  0
   30.1000  -19.1100    0.0000 C   0  0  0  0  0  0  0  0  0  0  0  0
   30.9400  -17.9200    0.0000 N   0  0  0  0  0  0  0  0  0  0  0  0
   30.1000  -16.8000    0.0000 C   0  0  0  0  0  0  0  0  0  0  0  0
   28.7700  -17.2900    0.0000 N   0  0  0  0  0  0  0  0  0  0  0  0
   30.5200  -15.4700    0.0000 C   0  0  0  0  0  0  0  0  0  0  0  0
   31.8500  -15.0500    0.0000 N   0  0  0  0  0  0  0  0  0  0  0  0
   31.8500  -13.6500    0.0000 C   0  0  0  0  0  0  0  0  0  0  0  0
   30.5200  -13.2300    0.0000 C   0  0  0  0  0  0  0  0  0  0  0  0
   29.6800  -14.3500    0.0000 C   0  0  0  0  0  0  0  0  0  0  0  0
   33.0400  -15.7500    0.0000 C   0  0  0  0  0  0  0  0  0  0  0  0
   34.2300  -15.0500    0.0000 O   0  0  0  0  0  0  0  0  0  0  0  0
   33.0400  -17.1500    0.0000 C   0  0  0  0  0  0  0  0  0  0  0  0
   31.8500  -17.8500    0.0000 N   0  0  0  0  0  0  0  0  0  0  0  0
   34.2300  -17.8500    0.0000 C   0  0  0  0  0  0  0  0  0  0  0  0
   31.8500  -19.2500    0.0000 C   0  0  0  0  0  0  0  0  0  0  0  0
   30.6600  -19.9500    0.0000 O   0  0  0  0  0  0  0  0  0  0  0  0
   33.0400  -19.9500    0.0000 O   0  0  0  0  0  0  0  0  0  0  0  0
   30.6600  -21.3500    0.0000 C   0  0  0  0  0  0  0  0  0  0  0  0
   35.4200  -17.1500    0.0000 C   0  0  0  0  0  0  0  0  0  0  0  0
   34.2300  -19.2500    0.0000 C   0  0  0  0  0  0  0  0  0  0  0  0
   18.4800  -26.8100    0.0000 C   0  0  0  0  0  0  0  0  0  0  0  0
   17.1500  -27.2300    0.0000 N   0  0  0  0  0  0  0  0  0  0  0  0
   17.1500  -28.6300    0.0000 C   0  0  0  0  0  0  0  0  0  0  0  0
   18.4800  -29.0500    0.0000 C   0  0  0  0  0  0  0  0  0  0  0  0
   19.3200  -27.9300    0.0000 C   0  0  0  0  0  0  0  0  0  0  0  0
   15.9600  -26.5300    0.0000 C   0  0  0  0  0  0  0  0  0  0  0  0
   14.7700  -27.2300    0.0000 O   0  0  0  0  0  0  0  0  0  0  0  0
   15.9600  -25.1300    0.0000 C   0  0  0  0  0  0  0  0  0  0  0  0
   14.7700  -24.4300    0.0000 C   0  0  0  0  0  0  0  0  0  0  0  0
   17.2200  -24.4300    0.0000 N   0  0  0  0  0  0  0  0  0  0  0  0
   17.2200  -22.9600    0.0000 C   0  0  0  0  0  0  0  0  0  0  0  0
   18.4100  -22.3300    0.0000 O   0  0  0  0  0  0  0  0  0  0  0  0
   15.9600  -22.2600    0.0000 O   0  0  0  0  0  0  0  0  0  0  0  0
   18.4100  -20.9300    0.0000 C   0  0  0  0  0  0  0  0  0  0  0  0
   13.5800  -25.0600    0.0000 C   0  0  0  0  0  0  0  0  0  0  0  0
   14.7700  -22.9600    0.0000 C   0  0  0  0  0  0  0  0  0  0  0  0
   27.9300  -25.9700    0.0000 Cl  0  0  0  0  0  0  0  0  0  0  0  0
   27.9300  -28.1400    0.0000 Cl  0  0  0  0  0  0  0  0  0  0  0  0
   19.8800  -21.7700    0.0000 C   0  0  0  0  0  0  0  0  0  0  0  0
   19.8800  -23.1700    0.0000 C   0  0  0  0  0  0  0  0  0  0  0  0
   21.0700  -23.8700    0.0000 C   0  0  0  0  0  0  0  0  0  0  0  0
   22.3300  -23.1700    0.0000 C   0  0  0  0  0  0  0  0  0  0  0  0
   22.3300  -21.7700    0.0000 C   0  0  0  0  0  0  0  0  0  0  0  0
   21.0700  -21.0700    0.0000 C   0  0  0  0  0  0  0  0  0  0  0  0
   23.5200  -21.0700    0.0000 C   0  0  0  0  0  0  0  0  0  0  0  0
   24.7100  -21.7700    0.0000 C   0  0  0  0  0  0  0  0  0  0  0  0
   25.9700  -21.0700    0.0000 C   0  0  0  0  0  0  0  0  0  0  0  0
   25.9700  -19.6700    0.0000 C   0  0  0  0  0  0  0  0  0  0  0  0
   24.7800  -18.9700    0.0000 C   0  0  0  0  0  0  0  0  0  0  0  0
   23.5200  -19.6700    0.0000 C   0  0  0  0  0  0  0  0  0  0  0  0
   18.6900  -23.8700    0.0000 C   0  0  0  0  0  0  0  0  0  0  0  0
   17.3600  -23.4500    0.0000 C   0  0  0  0  0  0  0  0  0  0  0  0
   16.5200  -24.5700    0.0000 N   0  0  0  0  0  0  0  0  0  0  0  0
   17.3600  -25.6900    0.0000 C   0  0  0  0  0  0  0  0  0  0  0  0
   18.6900  -25.2700    0.0000 N   0  0  0  0  0  0  0  0  0  0  0  0
   27.1600  -18.9700    0.0000 C   0  0  0  0  0  0  0  0  0  0  0  0
   28.4900  -19.3900    0.0000 C   0  0  0  0  0  0  0  0  0  0  0  0
   29.3300  -18.2000    0.0000 N   0  0  0  0  0  0  0  0  0  0  0  0
   28.4900  -17.0800    0.0000 C   0  0  0  0  0  0  0  0  0  0  0  0
   27.1600  -17.5700    0.0000 N   0  0  0  0  0  0  0  0  0  0  0  0
   28.9100  -15.7500    0.0000 C   0  0  0  0  0  0  0  0  0  0  0  0
   30.2400  -15.3300    0.0000 N   0  0  0  0  0  0  0  0  0  0  0  0
   30.2400  -13.9300    0.0000 C   0  0  0  0  0  0  0  0  0  0  0  0
   28.9100  -13.5100    0.0000 C   0  0  0  0  0  0  0  0  0  0  0  0
   28.0700  -14.6300    0.0000 C   0  0  0  0  0  0  0  0  0  0  0  0
   31.4300  -16.0300    0.0000 C   0  0  0  0  0  0  0  0  0  0  0  0
   32.6200  -15.3300    0.0000 O   0  0  0  0  0  0  0  0  0  0  0  0
   31.4300  -17.4300    0.0000 C   0  0  0  0  0  0  0  0  0  0  0  0
   30.2400  -18.1300    0.0000 N   0  0  0  0  0  0  0  0  0  0  0  0
   32.6200  -18.1300    0.0000 C   0  0  0  0  0  0  0  0  0  0  0  0
   30.2400  -19.5300    0.0000 C   0  0  0  0  0  0  0  0  0  0  0  0
   29.0500  -20.2300    0.0000 O   0  0  0  0  0  0  0  0  0  0  0  0
   31.4300  -20.2300    0.0000 O   0  0  0  0  0  0  0  0  0  0  0  0
   29.0500  -21.6300    0.0000 C   0  0  0  0  0  0  0  0  0  0  0  0
   33.8100  -17.4300    0.0000 C   0  0  0  0  0  0  0  0  0  0  0  0
   32.6200  -19.5300    0.0000 C   0  0  0  0  0  0  0  0  0  0  0  0
   16.9400  -27.0200    0.0000 C   0  0  0  0  0  0  0  0  0  0  0  0
   15.6100  -27.4400    0.0000 N   0  0  0  0  0  0  0  0  0  0  0  0
   15.6100  -28.8400    0.0000 C   0  0  0  0  0  0  0  0  0  0  0  0
   16.9400  -29.2600    0.0000 C   0  0  0  0  0  0  0  0  0  0  0  0
   17.7800  -28.1400    0.0000 C   0  0  0  0  0  0  0  0  0  0  0  0
   14.4200  -26.7400    0.0000 C   0  0  0  0  0  0  0  0  0  0  0  0
   13.2300  -27.4400    0.0000 O   0  0  0  0  0  0  0  0  0  0  0  0
   14.4200  -25.3400    0.0000 C   0  0  0  0  0  0  0  0  0  0  0  0
   13.2076  -24.6400    0.0000 C   0  0  0  0  0  0  0  0  0  0  0  0
   15.6324  -24.6400    0.0000 N   0  0  0  0  0  0  0  0  0  0  0  0
   15.6324  -23.2400    0.0000 C   0  0  0  0  0  0  0  0  0  0  0  0
   16.8279  -22.5496    0.0000 O   0  0  0  0  0  0  0  0  0  0  0  0
   14.4033  -22.5302    0.0000 O   0  0  0  0  0  0  0  0  0  0  0  0
   16.8279  -21.1496    0.0000 C   0  0  0  0  0  0  0  0  0  0  0  0
   12.0121  -25.3304    0.0000 C   0  0  0  0  0  0  0  0  0  0  0  0
   13.2075  -23.2402    0.0000 C   0  0  0  0  0  0  0  0  0  0  0  0
   14.3982  -18.8068    0.0000 C   0  0  0  0  0  0  0  0  0  0  0  0
   14.3982  -20.1980    0.0000 C   0  0  0  0  0  0  0  0  0  0  0  0
   15.5807  -20.8935    0.0000 C   0  0  0  0  0  0  0  0  0  0  0  0
   16.8327  -20.1980    0.0000 C   0  0  0  0  0  0  0  0  0  0  0  0
   16.8327  -18.8068    0.0000 N   0  0  0  0  0  0  0  0  0  0  0  0
   15.5807  -18.1113    0.0000 C   0  0  0  0  0  0  0  0  0  0  0  0
   13.2158  -18.1113    0.0000 C   0  0  0  0  0  0  0  0  0  0  0  0
   11.9637  -18.8068    0.0000 C   0  0  0  0  0  0  0  0  0  0  0  0
   11.9637  -20.1980    0.0000 C   0  0  0  0  0  0  0  0  0  0  0  0
   13.2158  -20.8935    0.0000 C   0  0  0  0  0  0  0  0  0  0  0  0
   10.7813  -18.1113    0.0000 Cl  0  0  0  0  0  0  0  0  0  0  0  0
   15.5807  -22.2847    0.0000 O   0  0  0  0  0  0  0  0  0  0  0  0
   14.3982  -22.9802    0.0000 C   0  0  0  0  0  0  0  0  0  0  0  0
   15.5807  -16.7201    0.0000 O   0  0  0  0  0  0  0  0  0  0  0  0
   16.7631  -16.0246    0.0000 C   0  0  0  0  0  0  0  0  0  0  0  0
   18.0847  -16.4419    0.0000 C   0  0  0  0  0  0  0  0  0  0  0  0
   18.8498  -15.3290    0.0000 C   0  0  0  0  0  0  0  0  0  0  0  0
   18.0152  -14.2161    0.0000 N   0  0  0  0  0  0  0  0  0  0  0  0
   16.7631  -14.7030    0.0000 C   0  0  0  0  0  0  0  0  0  0  0  0
   20.2410  -15.2594    0.0000 C   0  0  0  0  0  0  0  0  0  0  0  0
   20.9365  -16.4419    0.0000 O   0  0  0  0  0  0  0  0  0  0  0  0
   20.9365  -14.0770    0.0000 N   0  0  0  0  0  0  0  0  0  0  0  0
   23.0928  -14.0770    0.0000 C   0  0  0  0  0  0  0  0  0  0  0  0
   18.0152  -12.8250    0.0000 C   0  0  0  0  0  0  0  0  0  0  0  0
   19.1976  -12.1294    0.0000 O   0  0  0  0  0  0  0  0  0  0  0  0
   16.8327  -12.1294    0.0000 C   0  0  0  0  0  0  0  0  0  0  0  0
   15.6502  -12.8250    0.0000 N   0  0  0  0  0  0  0  0  0  0  0  0
   14.4678  -12.1294    0.0000 C   0  0  0  0  0  0  0  0  0  0  0  0
   13.2853  -12.8250    0.0000 O   0  0  0  0  0  0  0  0  0  0  0  0
   14.4678  -10.7383    0.0000 O   0  0  0  0  0  0  0  0  0  0  0  0
   12.1029  -12.1294    0.0000 C   0  0  0  0  0  0  0  0  0  0  0  0
   10.9204  -12.8250    0.0000 C   0  0  0  0  0  0  0  0  0  0  0  0
   12.1029  -10.7383    0.0000 C   0  0  0  0  0  0  0  0  0  0  0  0
   10.8508  -11.4338    0.0000 C   0  0  0  0  0  0  0  0  0  0  0  0
   16.8327  -10.7383    0.0000 C   0  0  0  0  0  0  0  0  0  0  0  0
   15.6502  -10.0427    0.0000 C   0  0  0  0  0  0  0  0  0  0  0  0
   18.0152  -10.0427    0.0000 C   0  0  0  0  0  0  0  0  0  0  0  0
   16.8327   -9.3471    0.0000 C   0  0  0  0  0  0  0  0  0  0  0  0
   24.3448  -14.8421    0.0000 C   0  0  0  0  0  0  0  0  0  0  0  0
   24.3448  -13.4510    0.0000 C   0  0  0  0  0  0  0  0  0  0  0  0
   25.1099  -12.2685    0.0000 C   0  0  0  0  0  0  0  0  0  0  0  0
   26.5011  -12.2685    0.0000 C   0  0  0  0  0  0  0  0  0  0  0  0
   23.0928  -15.4681    0.0000 C   0  0  0  0  0  0  0  0  0  0  0  0
   24.2753  -16.1637    0.0000 O   0  0  0  0  0  0  0  0  0  0  0  0
   21.9103  -16.1637    0.0000 N   0  0  0  0  0  0  0  0  0  0  0  0
   21.9103  -17.5548    0.0000 S   0  0  0  0  0  0  0  0  0  0  0  0
   23.3015  -17.5548    0.0000 O   0  0  0  0  0  0  0  0  0  0  0  0
   20.5192  -17.5548    0.0000 O   0  0  0  0  0  0  0  0  0  0  0  0
   21.9103  -18.9460    0.0000 C   0  0  0  0  0  0  0  0  0  0  0  0
   21.2148  -20.1284    0.0000 C   0  0  0  0  0  0  0  0  0  0  0  0
   22.6059  -20.1284    0.0000 C   0  0  0  0  0  0  0  0  0  0  0  0
   27.1545  -19.6770    0.0000 Cl  0  0  0  0  0  0  0  0  0  0  0  0
   13.0900  -12.3900    0.0000 C   0  0  0  0  0  0  0  0  0  0  0  0
   13.0900  -13.7900    0.0000 C   0  0  0  0  0  0  0  0  0  0  0  0
   14.2800  -14.4900    0.0000 C   0  0  0  0  0  0  0  0  0  0  0  0
   15.5400  -13.7900    0.0000 C   0  0  0  0  0  0  0  0  0  0  0  0
   15.5400  -12.3900    0.0000 C   0  0  0  0  0  0  0  0  0  0  0  0
   14.2800  -11.6900    0.0000 C   0  0  0  0  0  0  0  0  0  0  0  0
   16.8000  -14.2100    0.0000 N   0  0  0  0  0  0  0  0  0  0  0  0
   17.5700  -13.0900    0.0000 C   0  0  0  0  0  0  0  0  0  0  0  0
   16.8000  -11.9700    0.0000 C   0  0  0  0  0  0  0  0  0  0  0  0
   11.9000  -14.4900    0.0000 C   0  0  0  0  0  0  0  0  0  0  0  0
   10.7100  -13.7900    0.0000 N   0  0  0  0  0  0  0  0  0  0  0  0
   11.9000  -15.8900    0.0000 O   0  0  0  0  0  0  0  0  0  0  0  0
    9.5200  -14.4900    0.0000 S   0  0  0  0  0  0  0  0  0  0  0  0
    8.4700  -13.5100    0.0000 O   0  0  0  0  0  0  0  0  0  0  0  0
   10.5000  -15.4700    0.0000 O   0  0  0  0  0  0  0  0  0  0  0  0
    8.4700  -15.4700    0.0000 N   0  0  0  0  0  0  0  0  0  0  0  0
    7.1400  -15.1200    0.0000 C   0  0  0  0  0  0  0  0  0  0  0  0
    8.8900  -16.8000    0.0000 C   0  0  0  0  0  0  0  0  0  0  0  0
   18.9700  -13.0900    0.0000 C   0  0  0  0  0  0  0  0  0  0  0  0
   19.8800  -14.2100    0.0000 C   0  0  0  0  0  0  0  0  0  0  0  0
   17.0100  -15.5400    0.0000 C   0  0  0  0  0  0  0  0  0  0  0  0
   19.5300  -15.5400    0.0000 C   0  0  0  0  0  0  0  0  0  0  0  0
   18.2700  -16.1700    0.0000 C   0  0  0  0  0  0  0  0  0  0  0  0
   17.2900  -10.6400    0.0000 C   0  0  0  0  0  0  0  0  0  0  0  0
   18.6900  -10.3600    0.0000 C   0  0  0  0  0  0  0  0  0  0  0  0
   19.1100   -9.0300    0.0000 C   0  0  0  0  0  0  0  0  0  0  0  0
   18.2000   -7.9800    0.0000 C   0  0  0  0  0  0  0  0  0  0  0  0
   16.8000   -8.2600    0.0000 C   0  0  0  0  0  0  0  0  0  0  0  0
   16.3100   -9.5900    0.0000 C   0  0  0  0  0  0  0  0  0  0  0  0
   21.2800  -14.0000    0.0000 C   0  0  0  0  0  0  0  0  0  0  0  0
   21.7700  -12.6700    0.0000 C   0  0  0  0  0  0  0  0  0  0  0  0
   20.8600  -11.5500    0.0000 C   0  0  0  0  0  0  0  0  0  0  0  0
   19.4600  -11.7600    0.0000 C   0  0  0  0  0  0  0  0  0  0  0  0
   18.2700  -17.5700    0.0000 C   0  0  0  0  0  0  0  0  0  0  0  0
   17.0800  -18.2700    0.0000 O   0  0  0  0  0  0  0  0  0  0  0  0
   23.1700  -12.4600    0.0000 O   0  0  0  0  0  0  0  0  0  0  0  0
   24.0100  -13.5800    0.0000 C   0  0  0  0  0  0  0  0  0  0  0  0
   19.4600  -16.8700    0.0000 C   0  0  0  0  0  0  0  0  0  0  0  0
   22.7500  -20.5800    0.0000 N   0  0  0  0  0  0  0  0  0  0  0  0
   21.7700  -19.1100    0.0000 C   0  0  0  0  0  0  0  0  0  0  0  0
   21.7700  -20.0900    0.0000 C   0  0  0  0  0  0  0  0  0  0  0  0
   20.3700  -19.1100    0.0000 C   0  0  0  0  0  0  0  0  0  0  0  0
   20.3000  -20.0900    0.0000 C   0  0  0  0  0  0  0  0  0  0  0  0
   19.5300  -18.3400    0.0000 N   0  0  0  0  0  0  0  0  0  0  0  0
   19.3900  -19.7400    0.0000 C   0  0  0  0  0  0  0  0  0  0  0  0
   18.8300  -20.7900    0.0000 C   0  0  0  0  0  0  0  0  0  0  0  0
   23.8000  -21.4900    0.0000 C   0  0  0  0  0  0  0  0  0  0  0  0
   18.4800  -14.3500    0.0000 C   0  0  0  0  0  0  0  0  0  0  0  0
   18.4800  -15.7500    0.0000 C   0  0  0  0  0  0  0  0  0  0  0  0
   19.6700  -16.4500    0.0000 C   0  0  0  0  0  0  0  0  0  0  0  0
   20.9300  -15.7500    0.0000 C   0  0  0  0  0  0  0  0  0  0  0  0
   20.9300  -14.3500    0.0000 C   0  0  0  0  0  0  0  0  0  0  0  0
   19.6700  -13.6500    0.0000 C   0  0  0  0  0  0  0  0  0  0  0  0
   22.2600  -16.1700    0.0000 N   0  0  0  0  0  0  0  0  0  0  0  0
   23.0300  -15.0500    0.0000 C   0  0  0  0  0  0  0  0  0  0  0  0
   22.2600  -13.9300    0.0000 C   0  0  0  0  0  0  0  0  0  0  0  0
   17.2900  -16.4500    0.0000 C   0  0  0  0  0  0  0  0  0  0  0  0
   16.1000  -15.7500    0.0000 N   0  0  0  0  0  0  0  0  0  0  0  0
   17.2900  -17.8500    0.0000 O   0  0  0  0  0  0  0  0  0  0  0  0
   14.9100  -16.4500    0.0000 S   0  0  0  0  0  0  0  0  0  0  0  0
   13.8600  -15.4700    0.0000 O   0  0  0  0  0  0  0  0  0  0  0  0
   15.8900  -17.4300    0.0000 O   0  0  0  0  0  0  0  0  0  0  0  0
   13.8600  -17.4300    0.0000 N   0  0  0  0  0  0  0  0  0  0  0  0
   12.5300  -17.0800    0.0000 C   0  0  0  0  0  0  0  0  0  0  0  0
   14.2800  -18.7600    0.0000 C   0  0  0  0  0  0  0  0  0  0  0  0
   24.4300  -15.0500    0.0000 C   0  0  0  0  0  0  0  0  0  0  0  0
   25.3400  -16.1700    0.0000 C   0  0  0  0  0  0  0  0  0  0  0  0
   22.4700  -17.5000    0.0000 C   0  0  0  0  0  0  0  0  0  0  0  0
   24.9900  -17.5000    0.0000 C   0  0  0  0  0  0  0  0  0  0  0  0
   23.7300  -18.1300    0.0000 C   0  0  0  0  0  0  0  0  0  0  0  0
   22.7500  -12.6000    0.0000 C   0  0  0  0  0  0  0  0  0  0  0  0
   24.1500  -12.3200    0.0000 C   0  0  0  0  0  0  0  0  0  0  0  0
   24.5700  -10.9900    0.0000 C   0  0  0  0  0  0  0  0  0  0  0  0
   23.6600   -9.9400    0.0000 C   0  0  0  0  0  0  0  0  0  0  0  0
   22.2600  -10.2200    0.0000 C   0  0  0  0  0  0  0  0  0  0  0  0
   21.7700  -11.5500    0.0000 C   0  0  0  0  0  0  0  0  0  0  0  0
   26.7400  -15.9600    0.0000 C   0  0  0  0  0  0  0  0  0  0  0  0
   27.2300  -14.6300    0.0000 C   0  0  0  0  0  0  0  0  0  0  0  0
   26.3200  -13.5100    0.0000 C   0  0  0  0  0  0  0  0  0  0  0  0
   24.9200  -13.7200    0.0000 C   0  0  0  0  0  0  0  0  0  0  0  0
   23.7300  -19.5300    0.0000 C   0  0  0  0  0  0  0  0  0  0  0  0
   22.5400  -20.2300    0.0000 O   0  0  0  0  0  0  0  0  0  0  0  0
   28.6300  -14.4200    0.0000 O   0  0  0  0  0  0  0  0  0  0  0  0
   29.4700  -15.5400    0.0000 C   0  0  0  0  0  0  0  0  0  0  0  0
   24.9200  -18.8300    0.0000 C   0  0  0  0  0  0  0  0  0  0  0  0
   28.2100  -22.6100    0.0000 N   0  0  0  0  0  0  0  0  0  0  0  0
   27.2300  -21.1400    0.0000 C   0  0  0  0  0  0  0  0  0  0  0  0
   27.2300  -22.1200    0.0000 C   0  0  0  0  0  0  0  0  0  0  0  0
   25.8300  -21.1400    0.0000 C   0  0  0  0  0  0  0  0  0  0  0  0
   25.7600  -22.1200    0.0000 C   0  0  0  0  0  0  0  0  0  0  0  0
   24.9900  -20.3000    0.0000 N   0  0  0  0  0  0  0  0  0  0  0  0
   24.8500  -21.7700    0.0000 C   0  0  0  0  0  0  0  0  0  0  0  0
   24.2900  -22.8200    0.0000 C   0  0  0  0  0  0  0  0  0  0  0  0
   29.2600  -23.5200    0.0000 C   0  0  0  0  0  0  0  0  0  0  0  0
  1  2  2  0
  2  3  1  0
  3  4  2  0
  4  5  1  0
  5  6  2  0
  1  6  1  0
  5  7  1  0
  7  8  2  0
  8  9  1  0
  9 10  2  0
 10 11  1  0
 11 12  2  0
  7 12  1  0
  2 13  1  0
 13 14  2  0
 14 15  1  0
 15 16  2  0
 16 17  1  0
 13 17  1  0
 10 18  1  0
 18 19  2  0
 19 20  1  0
 20 21  2  0
 21 22  1  0
 18 22  1  0
 23 21  1  6
 23 24  1  0
 24 25  1  0
 25 26  1  0
 26 27  1  0
 23 27  1  0
 24 28  1  0
 28 29  2  0
 28 30  1  0
 30 31  1  6
 30 32  1  0
 31 33  1  0
 33 34  1  0
 33 35  2  0
 34 36  1  0
 32 37  1  0
 32 38  1  0
 39 16  1  6
 39 40  1  0
 40 41  1  0
 41 42  1  0
 42 43  1  0
 39 43  1  0
 44 40  1  0
 44 45  2  0
 44 46  1  0
 46 47  1  0
 46 48  1  6
 48 49  1  0
 49 50  1  0
 49 51  2  0
 50 52  1  0
 47 53  1  0
 47 54  1  0
 57 58  2  0
 58 59  1  0
 59 60  2  0
 60 61  1  0
 61 62  2  0
 57 62  1  0
 61 63  1  0
 63 64  2  0
 64 65  1  0
 65 66  2  0
 66 67  1  0
 67 68  2  0
 63 68  1  0
 58 69  1  0
 69 70  2  0
 70 71  1  0
 71 72  2  0
 72 73  1  0
 69 73  1  0
 66 74  1  0
 74 75  2  0
 75 76  1  0
 76 77  2  0
 77 78  1  0
 74 78  1  0
 79 77  1  6
 79 80  1  0
 80 81  1  0
 81 82  1  0
 82 83  1  0
 79 83  1  0
 80 84  1  0
 84 85  2  0
 84 86  1  0
 86 87  1  6
 86 88  1  0
 87 89  1  0
 89 90  1  0
 89 91  2  0
 90 92  1  0
 88 93  1  0
 88 94  1  0
 95 72  1  6
 95 96  1  0
 96 97  1  0
 97 98  1  0
 98 99  1  0
 95 99  1  0
100 96  1  0
100101  2  0
100102  1  0
102103  1  0
102104  1  6
104105  1  0
105106  1  0
105107  2  0
106108  1  0
103109  1  0
103110  1  0
111112  1  0
112113  2  0
113114  1  0
114115  2  0
115116  1  0
111116  2  0
111117  1  0
117118  2  0
118119  1  0
119120  2  0
112120  1  0
118121  1  0
113122  1  0
122123  1  0
116124  1  0
125124  1  1
125126  1  0
126127  1  0
127128  1  0
128129  1  0
125129  1  0
127130  1  6
130131  2  0
130132  1  0
133132  1  1
128134  1  0
134135  2  0
136134  1  0
136137  1  1
137138  1  0
138139  1  0
138140  2  0
139141  1  0
141142  1  0
141143  1  0
141144  1  0
136145  1  0
145146  1  0
145147  1  0
145148  1  0
133149  1  0
149150  1  0
150133  1  0
150151  1  6
151152  2  0
133153  1  0
153154  2  0
153155  1  0
155156  1  0
156157  2  0
156158  2  0
156159  1  0
160161  1  0
161159  1  0
159160  1  0
163164  2  0
164165  1  0
165166  2  0
166167  1  0
167168  2  0
163168  1  0
166169  1  0
170171  2  0
167171  1  0
164172  1  0
172173  1  0
172174  2  0
173175  1  0
175176  2  0
175177  2  0
175178  1  0
178179  1  0
178180  1  0
181182  2  0
169183  1  0
182184  1  0
170181  1  0
183185  1  0
184185  1  0
169170  1  0
171186  1  0
186187  1  0
187188  1  0
188189  1  0
189190  1  0
190191  1  0
186191  1  0
182192  1  0
192193  2  0
193194  1  0
194195  2  0
181195  1  0
185196  1  1
196197  2  0
193198  1  0
198199  1  0
185200  1  0
184200  1  6
202204  1  0
203205  1  0
204206  1  0
204207  1  0
205208  1  0
205206  1  0
207208  1  0
201202  1  0
201203  1  0
201209  1  0
196206  1  0
210211  2  0
211212  1  0
212213  2  0
213214  1  0
214215  2  0
210215  1  0
213216  1  0
217218  2  0
214218  1  0
211219  1  0
219220  1  0
219221  2  0
220222  1  0
222223  2  0
222224  2  0
222225  1  0
225226  1  0
225227  1  0
228229  2  0
216230  1  0
229231  1  0
217228  1  0
230232  1  0
231232  1  0
216217  1  0
218233  1  0
233234  1  0
234235  1  0
235236  1  0
236237  1  0
237238  1  0
233238  1  0
229239  1  0
239240  2  0
240241  1  0
241242  2  0
228242  1  0
232243  1  1
243244  2  0
240245  1  0
245246  1  0
232247  1  0
231247  1  6
249251  1  0
250252  1  0
251253  1  0
251254  1  0
252255  1  0
252253  1  0
254255  1  0
248249  1  0
248250  1  0
248256  1  0
243253  1  0
M  END
