 
     RDKit          2D

 47 53  0  0  1  0  0  0  0  0999 V2000
   26.4600  -16.5900    0.0000 C   0  0  0  0  0  0  0  0  0  0  0  0
   26.4600  -17.9200    0.0000 C   0  0  0  0  0  0  0  0  0  0  0  0
   28.8400  -17.9200    0.0000 C   0  0  0  0  0  0  0  0  0  0  0  0
   28.8400  -16.5900    0.0000 C   0  0  0  0  0  0  0  0  0  0  0  0
   27.6500  -15.8900    0.0000 C   0  0  0  0  0  0  0  0  0  0  0  0
   25.2700  -15.8900    0.0000 C   0  0  0  0  0  0  0  0  0  0  0  0
   24.0800  -16.5900    0.0000 C   0  0  0  0  0  0  0  0  0  0  0  0
   24.0800  -17.9200    0.0000 C   0  0  0  0  0  0  0  0  0  0  0  0
   25.2700  -18.6200    0.0000 C   0  0  0  0  0  0  0  0  0  0  0  0
   22.9600  -18.6200    0.0000 C   0  0  0  0  0  0  0  0  0  0  0  0
   22.9600  -20.0200    0.0000 C   0  0  0  0  0  0  0  0  0  0  0  0
   24.0800  -20.6500    0.0000 C   0  0  0  0  0  0  0  0  0  0  0  0
   25.2700  -20.0200    0.0000 C   0  0  0  0  0  0  0  0  0  0  0  0
   21.8400  -17.9200    0.0000 C   0  0  0  0  0  0  0  0  0  0  0  0
   20.6500  -18.6200    0.0000 C   0  0  0  0  0  0  0  0  0  0  0  0
   20.6500  -20.0200    0.0000 C   0  0  0  0  0  0  0  0  0  0  0  0
   21.8400  -20.6500    0.0000 C   0  0  0  0  0  0  0  0  0  0  0  0
   26.4600  -15.1900    0.0000 C   0  0  0  0  0  0  0  0  0  0  0  0
   27.6500  -14.4900    0.0000 C   0  0  0  0  0  0  0  0  0  0  0  0
   26.4600  -13.7900    0.0000 C   0  0  0  0  0  0  0  0  0  0  0  0
   28.8400  -15.1900    0.0000 O   0  0  0  0  0  0  0  0  0  0  0  0
   24.0800  -22.0500    0.0000 C   0  0  0  0  0  0  0  0  0  0  0  0
   19.4600  -20.7200    0.0000 O   0  0  0  0  0  0  0  0  0  0  0  0
   28.8400  -13.7900    0.0000 O   0  0  0  0  0  0  0  0  0  0  0  0
   30.0581  -15.8801    0.0000 C   0  0  0  0  0  0  0  0  0  0  0  0
   31.2395  -15.1850    0.0000 C   0  0  0  0  0  0  0  0  0  0  0  0
   30.0698  -17.2894    0.0000 O   0  0  0  0  0  0  0  0  0  0  0  0
   19.0779  -11.8363    0.0000 C   0  0  0  0  0  0  0  0  0  0  0  0
   19.0779  -13.2006    0.0000 C   0  0  0  0  0  0  0  0  0  0  0  0
   20.2594  -13.8828    0.0000 C   0  0  0  0  0  0  0  0  0  0  0  0
   21.4411  -13.2006    0.0000 C   0  0  0  0  0  0  0  0  0  0  0  0
   21.4411  -11.8363    0.0000 C   0  0  0  0  0  0  0  0  0  0  0  0
   20.2594  -11.1541    0.0000 C   0  0  0  0  0  0  0  0  0  0  0  0
   22.6226  -13.8828    0.0000 C   0  0  0  0  0  0  0  0  0  0  0  0
   23.8041  -13.2006    0.0000 C   0  0  0  0  0  0  0  0  0  0  0  0
   23.8041  -11.8363    0.0000 C   0  0  0  0  0  0  0  0  0  0  0  0
   22.6226  -11.1541    0.0000 C   0  0  0  0  0  0  0  0  0  0  0  0
   24.9857  -11.1541    0.0000 C   0  0  0  0  0  0  0  0  0  0  0  0
   24.9857   -9.7898    0.0000 C   0  0  0  0  0  0  0  0  0  0  0  0
   23.8041   -9.1076    0.0000 C   0  0  0  0  0  0  0  0  0  0  0  0
   22.6226   -9.7898    0.0000 C   0  0  0  0  0  0  0  0  0  0  0  0
   27.3487  -11.1541    0.0000 C   0  0  0  0  0  0  0  0  0  0  0  0
   27.3487   -9.7898    0.0000 C   0  0  0  0  0  0  0  0  0  0  0  0
   26.1672   -9.1076    0.0000 C   0  0  0  0  0  0  0  0  0  0  0  0
   26.1672   -7.7433    0.0000 O   0  0  0  0  0  0  0  0  0  0  0  0
   17.8964  -13.8828    0.0000 O   0  0  0  0  0  0  0  0  0  0  0  0
   24.9857   -8.4255    0.0000 C   0  0  0  0  0  0  0  0  0  0  0  0
  1  2  1  0
  2  3  1  1
  3  4  1  0
  4  5  1  0
  1  5  1  0
  1  6  1  0
  6  7  1  0
  8  7  1  1
  8  9  1  0
  9  2  1  0
  8 10  1  0
 10 11  1  0
 11 12  1  0
 12 13  2  0
  9 13  1  6
 10 14  1  6
 14 15  1  0
 15 16  1  0
 16 17  1  0
 17 11  2  0
  1 18  1  1
  5 19  1  0
 19 20  1  0
  5 21  1  6
 12 22  1  0
 16 23  2  0
 19 24  2  0
 21 25  1  0
 25 26  1  0
 25 27  2  0
 28 29  2  0
 29 30  1  0
 30 31  2  0
 31 32  1  0
 32 33  2  0
 28 33  1  0
 31 34  1  0
 34 35  1  0
 36 35  1  6
 36 37  1  0
 32 37  1  0
 36 38  1  0
 38 39  1  0
 39 40  1  0
 40 41  1  0
 37 41  1  1
 38 42  1  1
 42 43  1  0
 43 44  1  0
 39 44  1  0
 44 45  1  1
 29 46  1  0
 39 47  1  1
M  END
