 
     RDKit          2D

 50 52  0  0  1  0  0  0  0  0999 V2000
   22.7083  -13.1828    0.0000 C   0  0  0  0  0  0  0  0  0  0  0  0
   22.7024  -14.5595    0.0000 C   0  0  0  0  0  0  0  0  0  0  0  0
   23.8982  -12.5004    0.0000 S   0  0  0  0  0  0  0  0  0  0  0  0
   21.3899  -12.7628    0.0000 S   0  0  0  0  0  0  0  0  0  0  0  0
   23.8982  -15.2479    0.0000 C   0  0  0  0  0  0  0  0  0  0  0  0
   21.3957  -14.9854    0.0000 C   0  0  0  0  0  0  0  0  0  0  0  0
   25.0825  -13.1828    0.0000 N   0  0  0  0  0  0  0  0  0  0  0  0
   22.6383  -11.5902    0.0000 O   0  0  0  0  0  0  0  0  0  0  0  0
   25.0067  -11.6602    0.0000 O   0  0  0  0  0  0  0  0  0  0  0  0
   20.5849  -13.8828    0.0000 C   0  0  0  0  0  0  0  0  0  0  0  0
   25.0825  -14.5595    0.0000 C   0  0  0  0  0  0  0  0  0  0  0  0
   23.8982  -16.6246    0.0000 N   0  0  0  0  0  0  0  0  0  0  0  0
   26.2784  -12.5004    0.0000 C   0  0  0  0  0  0  0  0  0  0  0  0
   19.2140  -13.8828    0.0000 S   0  0  0  0  0  0  0  0  0  0  0  0
   25.0884  -17.3073    0.0000 C   0  0  0  0  0  0  0  0  0  0  0  0
   27.4919  -13.2062    0.0000 C   0  0  0  0  0  0  0  0  0  0  0  0
   19.1614  -15.4812    0.0000 N   0  0  0  0  0  0  0  0  0  0  0  0
   19.1614  -12.5004    0.0000 O   0  0  0  0  0  0  0  0  0  0  0  0
   17.7730  -13.8887    0.0000 O   0  0  0  0  0  0  0  0  0  0  0  0
   25.0942  -18.6839    0.0000 C   0  0  0  0  0  0  0  0  0  0  0  0
   28.7052  -12.5004    0.0000 C   0  0  0  0  0  0  0  0  0  0  0  0
   29.9185  -13.2062    0.0000 O   0  0  0  0  0  0  0  0  0  0  0  0
   31.1261  -12.5004    0.0000 C   0  0  0  0  0  0  0  0  0  0  0  0
   21.8870  -16.5436    0.0000 O   0  0  0  0  0  0  0  0  0  0  0  0
   23.0994  -15.8436    0.0000 C   0  0  0  0  0  0  0  0  0  0  0  0
   24.3119  -16.5436    0.0000 C   0  0  0  0  0  0  0  0  0  0  0  0
   25.5244  -15.8436    0.0000 C   0  0  0  0  0  0  0  0  0  0  0  0
   26.7368  -16.5436    0.0000 C   0  0  0  0  0  0  0  0  0  0  0  0
   27.9492  -15.8436    0.0000 O   0  0  0  0  0  0  0  0  0  0  0  0
   23.1003  -14.4436    0.0000 O   0  0  0  0  0  0  0  0  0  0  0  0
   26.7404  -17.9435    0.0000 O   0  0  0  0  0  0  0  0  0  0  0  0
   24.3119  -17.9435    0.0000 O   0  0  0  0  0  0  0  0  0  0  0  0
   25.5244  -14.4436    0.0000 O   0  0  0  0  0  0  0  0  0  0  0  0
    9.7300  -16.3100    0.0000 C   0  0  0  0  0  0  0  0  0  0  0  0
    9.7300  -17.7100    0.0000 C   0  0  0  0  0  0  0  0  0  0  0  0
   10.9424  -18.4100    0.0000 N   0  0  0  0  0  0  0  0  0  0  0  0
   12.1549  -17.7100    0.0000 C   0  0  0  0  0  0  0  0  0  0  0  0
   12.1549  -16.3100    0.0000 C   0  0  0  0  0  0  0  0  0  0  0  0
   10.9424  -15.6100    0.0000 N   0  0  0  0  0  0  0  0  0  0  0  0
   13.3673  -18.4100    0.0000 C   0  0  0  0  0  0  0  0  0  0  0  0
   14.5797  -17.7100    0.0000 C   0  0  0  0  0  0  0  0  0  0  0  0
   14.5797  -16.3100    0.0000 C   0  0  0  0  0  0  0  0  0  0  0  0
   13.3673  -15.6100    0.0000 C   0  0  0  0  0  0  0  0  0  0  0  0
   17.0046  -17.7100    0.0000 N   0  0  0  0  0  0  0  0  0  0  0  0
   17.0046  -16.3100    0.0000 C   0  0  0  0  0  0  0  0  0  0  0  0
   15.7922  -15.6100    0.0000 N   0  0  0  0  0  0  0  0  0  0  0  0
   18.3361  -18.1426    0.0000 C   0  0  0  0  0  0  0  0  0  0  0  0
   19.1590  -17.0100    0.0000 C   0  0  0  0  0  0  0  0  0  0  0  0
   18.3361  -15.8774    0.0000 N   0  0  0  0  0  0  0  0  0  0  0  0
   13.3673  -14.2100    0.0000 Br  0  0  0  0  0  0  0  0  0  0  0  0
  1  2  2  0
  1  3  1  0
  1  4  1  0
  2  5  1  0
  2  6  1  0
  3  7  1  0
  3  8  2  0
  3  9  2  0
  4 10  1  0
  5 11  1  0
  5 12  1  6
  7 13  1  0
 10 14  1  0
 12 15  1  0
 13 16  1  0
 14 17  1  0
 14 18  2  0
 14 19  2  0
 15 20  1  0
 16 21  1  0
 21 22  1  0
 22 23  1  0
  6 10  2  0
  7 11  1  0
 24 25  1  0
 25 26  1  0
 26 27  1  0
 27 28  1  0
 28 29  1  0
 25 30  2  0
 28 31  2  0
 26 32  1  1
 27 33  1  1
 34 35  2  0
 35 36  1  0
 36 37  2  0
 37 38  1  0
 38 39  2  0
 34 39  1  0
 37 40  1  0
 40 41  2  0
 41 42  1  0
 42 43  2  0
 38 43  1  0
 44 45  2  0
 45 46  1  0
 42 46  1  0
 44 47  1  0
 47 48  1  0
 48 49  1  0
 45 49  1  0
 43 50  1  0
M  END
