115943-84-5.mol
     RDKit          2D

457499  0  0  1  0  0  0  0  0999 V2000
    1.3022   -3.2336    0.0000 S   0  0  0  0  0  0  0  0  0  0  0  0
    3.5715   -0.6222    0.0000 S   0  0  0  0  0  0  0  0  0  0  0  0
   -1.7584   -4.6108    0.0000 S   0  0  0  0  0  0  0  0  0  0  0  0
    7.0307   -0.5612    0.0000 S   0  0  0  0  0  0  0  0  0  0  0  0
   -4.7746   -5.2666    0.0000 S   0  0  0  0  0  0  0  0  0  0  0  0
    8.1065   -1.5945    0.0000 S   0  0  0  0  0  0  0  0  0  0  0  0
   -7.9741   -6.2801    0.0000 S   0  0  0  0  0  0  0  0  0  0  0  0
  -11.4065   -5.8460    0.0000 S   0  0  0  0  0  0  0  0  0  0  0  0
  -14.3342   -4.8683    0.0000 S   0  0  0  0  0  0  0  0  0  0  0  0
   10.7876    2.1587    0.0000 S   0  0  0  0  0  0  0  0  0  0  0  0
  -17.4055   -3.5153    0.0000 S   0  0  0  0  0  0  0  0  0  0  0  0
  -16.7885    2.5855    0.0000 S   0  0  0  0  0  0  0  0  0  0  0  0
  -18.4551   -0.3275    0.0000 S   0  0  0  0  0  0  0  0  0  0  0  0
   15.4589    0.9404    0.0000 S   0  0  0  0  0  0  0  0  0  0  0  0
  -13.5085    3.2962    0.0000 S   0  0  0  0  0  0  0  0  0  0  0  0
   18.4039    5.4852    0.0000 S   0  0  0  0  0  0  0  0  0  0  0  0
  -12.8883    6.0791    0.0000 S   0  0  0  0  0  0  0  0  0  0  0  0
    1.6364   -3.9880    0.0000 P   0  0  0  0  0  0  0  0  0  0  0  0
    3.2346   -1.3753    0.0000 P   0  0  0  0  0  0  0  0  0  0  0  0
   -2.0953   -5.3639    0.0000 P   0  0  0  0  0  0  0  0  0  0  0  0
    6.2456   -0.8147    0.0000 P   0  0  0  0  0  0  0  0  0  0  0  0
   -5.0282   -4.4816    0.0000 P   0  0  0  0  0  0  0  0  0  0  0  0
    8.9271   -1.5097    0.0000 P   0  0  0  0  0  0  0  0  0  0  0  0
   -8.7272   -5.9432    0.0000 P   0  0  0  0  0  0  0  0  0  0  0  0
  -11.6600   -5.0609    0.0000 P   0  0  0  0  0  0  0  0  0  0  0  0
  -14.6711   -5.6214    0.0000 P   0  0  0  0  0  0  0  0  0  0  0  0
   11.3998    1.6056    0.0000 P   0  0  0  0  0  0  0  0  0  0  0  0
  -18.1906   -3.7689    0.0000 P   0  0  0  0  0  0  0  0  0  0  0  0
  -16.9586    3.3928    0.0000 P   0  0  0  0  0  0  0  0  0  0  0  0
  -19.1689    0.0862    0.0000 P   0  0  0  0  0  0  0  0  0  0  0  0
   15.3740    1.7610    0.0000 P   0  0  0  0  0  0  0  0  0  0  0  0
  -13.0224    3.9628    0.0000 P   0  0  0  0  0  0  0  0  0  0  0  0
   17.9178    4.8185    0.0000 P   0  0  0  0  0  0  0  0  0  0  0  0
  -12.2742    6.6301    0.0000 P   0  0  0  0  0  0  0  0  0  0  0  0
    1.0266   -2.6008    0.0000 O   0  0  0  0  0  0  0  0  0  0  0  0
    0.2494   -6.3612    0.0000 O   0  0  0  0  0  0  0  0  0  0  0  0
    7.0734   -3.2245    0.0000 O   0  0  0  0  0  0  0  0  0  0  0  0
    3.8574    0.0060    0.0000 O   0  0  0  0  0  0  0  0  0  0  0  0
   -7.6440   -3.6369    0.0000 O   0  0  0  0  0  0  0  0  0  0  0  0
   -4.5582   -5.9220    0.0000 O   0  0  0  0  0  0  0  0  0  0  0  0
    0.8821   -4.3222    0.0000 O   0  0  0  0  0  0  0  0  0  0  0  0
    2.4815   -1.0384    0.0000 O   0  0  0  0  0  0  0  0  0  0  0  0
    8.7121    1.0292    0.0000 O   0  0  0  0  0  0  0  0  0  0  0  0
  -11.1900   -6.5014    0.0000 O   0  0  0  0  0  0  0  0  0  0  0  0
  -14.0482   -4.2401    0.0000 O   0  0  0  0  0  0  0  0  0  0  0  0
  -17.3627   -6.1787    0.0000 O   0  0  0  0  0  0  0  0  0  0  0  0
  -15.1085    5.4258    0.0000 O   0  0  0  0  0  0  0  0  0  0  0  0
  -20.4058   -2.1414    0.0000 O   0  0  0  0  0  0  0  0  0  0  0  0
    5.9920   -0.0296    0.0000 O   0  0  0  0  0  0  0  0  0  0  0  0
   -2.4322   -6.1171    0.0000 O   0  0  0  0  0  0  0  0  0  0  0  0
    9.0120   -2.3304    0.0000 O   0  0  0  0  0  0  0  0  0  0  0  0
   -5.8133   -4.7351    0.0000 O   0  0  0  0  0  0  0  0  0  0  0  0
    0.7754   -0.4808    0.0000 O   0  0  0  0  0  0  0  0  0  0  0  0
    2.2139   -5.5256    0.0000 O   0  0  0  0  0  0  0  0  0  0  0  0
   13.3215   -0.0674    0.0000 O   0  0  0  0  0  0  0  0  0  0  0  0
  -19.4417    2.8215    0.0000 O   0  0  0  0  0  0  0  0  0  0  0  0
    9.0089   -4.1253    0.0000 O   0  0  0  0  0  0  0  0  0  0  0  0
    5.2648    1.6114    0.0000 O   0  0  0  0  0  0  0  0  0  0  0  0
   -5.6225   -2.9504    0.0000 O   0  0  0  0  0  0  0  0  0  0  0  0
   -3.3323   -7.6700    0.0000 O   0  0  0  0  0  0  0  0  0  0  0  0
   17.9032    2.0698    0.0000 O   0  0  0  0  0  0  0  0  0  0  0  0
   -9.0640   -6.6963    0.0000 O   0  0  0  0  0  0  0  0  0  0  0  0
    2.3907   -3.6537    0.0000 O   0  0  0  0  0  0  0  0  0  0  0  0
   10.8466    0.9934    0.0000 O   0  0  0  0  0  0  0  0  0  0  0  0
  -11.9136   -4.2758    0.0000 O   0  0  0  0  0  0  0  0  0  0  0  0
  -15.4241   -5.2845    0.0000 O   0  0  0  0  0  0  0  0  0  0  0  0
   -1.3422   -5.7008    0.0000 O   0  0  0  0  0  0  0  0  0  0  0  0
  -18.4442   -2.9838    0.0000 O   0  0  0  0  0  0  0  0  0  0  0  0
  -16.1513    3.5630    0.0000 O   0  0  0  0  0  0  0  0  0  0  0  0
    3.9877   -1.7122    0.0000 O   0  0  0  0  0  0  0  0  0  0  0  0
  -18.7551    0.8000    0.0000 O   0  0  0  0  0  0  0  0  0  0  0  0
    6.4991   -1.5998    0.0000 O   0  0  0  0  0  0  0  0  0  0  0  0
   14.5533    1.6762    0.0000 O   0  0  0  0  0  0  0  0  0  0  0  0
   -4.2431   -4.2280    0.0000 O   0  0  0  0  0  0  0  0  0  0  0  0
   10.1194    2.6345    0.0000 O   0  0  0  0  0  0  0  0  0  0  0  0
   -9.9642   -8.2493    0.0000 O   0  0  0  0  0  0  0  0  0  0  0  0
  -12.6409   -2.6348    0.0000 O   0  0  0  0  0  0  0  0  0  0  0  0
  -15.4273   -7.0795    0.0000 O   0  0  0  0  0  0  0  0  0  0  0  0
  -17.2038    5.0169    0.0000 O   0  0  0  0  0  0  0  0  0  0  0  0
   -8.3903   -5.1901    0.0000 O   0  0  0  0  0  0  0  0  0  0  0  0
  -19.7801   -4.1825    0.0000 O   0  0  0  0  0  0  0  0  0  0  0  0
  -10.6079    4.7025    0.0000 O   0  0  0  0  0  0  0  0  0  0  0  0
   15.4482    0.1202    0.0000 O   0  0  0  0  0  0  0  0  0  0  0  0
    8.8423   -0.6891    0.0000 O   0  0  0  0  0  0  0  0  0  0  0  0
  -20.5399    0.9907    0.0000 O   0  0  0  0  0  0  0  0  0  0  0  0
  -10.8750   -4.8073    0.0000 O   0  0  0  0  0  0  0  0  0  0  0  0
   17.4317    4.1519    0.0000 O   0  0  0  0  0  0  0  0  0  0  0  0
  -13.9179   -5.9583    0.0000 O   0  0  0  0  0  0  0  0  0  0  0  0
  -17.9370   -4.5540    0.0000 O   0  0  0  0  0  0  0  0  0  0  0  0
   12.0119    1.0525    0.0000 O   0  0  0  0  0  0  0  0  0  0  0  0
  -19.5827   -0.6276    0.0000 O   0  0  0  0  0  0  0  0  0  0  0  0
   19.1868    3.7757    0.0000 O   0  0  0  0  0  0  0  0  0  0  0  0
  -17.7659    3.2227    0.0000 O   0  0  0  0  0  0  0  0  0  0  0  0
  -12.3558    3.4767    0.0000 O   0  0  0  0  0  0  0  0  0  0  0  0
  -13.6890    4.4489    0.0000 O   0  0  0  0  0  0  0  0  0  0  0  0
   16.1946    1.8459    0.0000 O   0  0  0  0  0  0  0  0  0  0  0  0
  -10.8029    2.5766    0.0000 O   0  0  0  0  0  0  0  0  0  0  0  0
    1.9707   -4.7422    0.0000 O   0  0  0  0  0  0  0  0  0  0  0  0
    2.8977   -2.1284    0.0000 O   0  0  0  0  0  0  0  0  0  0  0  0
   -2.8484   -5.0270    0.0000 O   0  0  0  0  0  0  0  0  0  0  0  0
   20.1416    5.8984    0.0000 O   0  0  0  0  0  0  0  0  0  0  0  0
    5.4605   -1.0683    0.0000 O   0  0  0  0  0  0  0  0  0  0  0  0
   -5.2818   -3.6965    0.0000 O   0  0  0  0  0  0  0  0  0  0  0  0
  -11.7232    6.0160    0.0000 O   0  0  0  0  0  0  0  0  0  0  0  0
    9.7478   -1.4249    0.0000 O   0  0  0  0  0  0  0  0  0  0  0  0
  -11.6885    9.3157    0.0000 O   0  0  0  0  0  0  0  0  0  0  0  0
   -9.4803   -5.6064    0.0000 O   0  0  0  0  0  0  0  0  0  0  0  0
   18.5844    4.3324    0.0000 O   0  0  0  0  0  0  0  0  0  0  0  0
  -11.6602    7.1811    0.0000 O   0  0  0  0  0  0  0  0  0  0  0  0
  -12.4451   -5.3145    0.0000 O   0  0  0  0  0  0  0  0  0  0  0  0
  -15.0079   -6.3746    0.0000 O   0  0  0  0  0  0  0  0  0  0  0  0
   11.9529    2.2178    0.0000 O   0  0  0  0  0  0  0  0  0  0  0  0
  -18.9757   -4.0225    0.0000 O   0  0  0  0  0  0  0  0  0  0  0  0
  -17.1288    4.2001    0.0000 O   0  0  0  0  0  0  0  0  0  0  0  0
  -19.8827    0.5000    0.0000 O   0  0  0  0  0  0  0  0  0  0  0  0
   15.2892    2.5817    0.0000 O   0  0  0  0  0  0  0  0  0  0  0  0
  -13.2986    7.9140    0.0000 O   0  0  0  0  0  0  0  0  0  0  0  0
   18.7398    7.5085    0.0000 O   0  0  0  0  0  0  0  0  0  0  0  0
  -12.5363    4.6294    0.0000 O   0  0  0  0  0  0  0  0  0  0  0  0
   18.0069    5.8701    0.0000 O   0  0  0  0  0  0  0  0  0  0  0  0
    4.5430    2.3812    0.0000 O   0  0  0  0  0  0  0  0  0  0  0  0
   -6.0417   -6.2301    0.0000 O   0  0  0  0  0  0  0  0  0  0  0  0
   17.2512    5.3047    0.0000 O   0  0  0  0  0  0  0  0  0  0  0  0
   -1.0917    0.6501    0.0000 O   0  0  0  0  0  0  0  0  0  0  0  0
    4.1232   -6.5836    0.0000 O   0  0  0  0  0  0  0  0  0  0  0  0
   11.1841   -3.9429    0.0000 O   0  0  0  0  0  0  0  0  0  0  0  0
    7.3261    0.8933    0.0000 O   0  0  0  0  0  0  0  0  0  0  0  0
  -13.3626   -1.8649    0.0000 O   0  0  0  0  0  0  0  0  0  0  0  0
   -4.9045   -0.8891    0.0000 O   0  0  0  0  0  0  0  0  0  0  0  0
  -18.4936   -7.1872    0.0000 O   0  0  0  0  0  0  0  0  0  0  0  0
   -2.6638   -9.1785    0.0000 O   0  0  0  0  0  0  0  0  0  0  0  0
  -21.9120   -1.9760    0.0000 O   0  0  0  0  0  0  0  0  0  0  0  0
    9.3976    3.4043    0.0000 O   0  0  0  0  0  0  0  0  0  0  0  0
   15.6431   -0.9169    0.0000 O   0  0  0  0  0  0  0  0  0  0  0  0
  -12.6736   -6.8094    0.0000 O   0  0  0  0  0  0  0  0  0  0  0  0
  -20.3266    4.0515    0.0000 O   0  0  0  0  0  0  0  0  0  0  0  0
   10.9469    4.0621    0.0000 O   0  0  0  0  0  0  0  0  0  0  0  0
  -10.6021  -10.3368    0.0000 O   0  0  0  0  0  0  0  0  0  0  0  0
  -11.8134   -1.2072    0.0000 O   0  0  0  0  0  0  0  0  0  0  0  0
  -14.9360   -9.2063    0.0000 O   0  0  0  0  0  0  0  0  0  0  0  0
  -18.8514    6.4487    0.0000 O   0  0  0  0  0  0  0  0  0  0  0  0
  -21.0319   -5.9708    0.0000 O   0  0  0  0  0  0  0  0  0  0  0  0
  -12.8252    7.2442    0.0000 O   0  0  0  0  0  0  0  0  0  0  0  0
   17.0888   -0.0551    0.0000 O   0  0  0  0  0  0  0  0  0  0  0  0
  -22.7065    0.7244    0.0000 O   0  0  0  0  0  0  0  0  0  0  0  0
   -9.9707    9.1795    0.0000 O   0  0  0  0  0  0  0  0  0  0  0  0
    1.8264    3.2690    0.0000 O   0  0  0  0  0  0  0  0  0  0  0  0
   20.4150    4.8777    0.0000 O   0  0  0  0  0  0  0  0  0  0  0  0
   -6.9296   -8.9467    0.0000 O   0  0  0  0  0  0  0  0  0  0  0  0
   -9.7665    2.3781    0.0000 O   0  0  0  0  0  0  0  0  0  0  0  0
    5.8057   -6.9910    0.0000 O   0  0  0  0  0  0  0  0  0  0  0  0
  -16.0792   -0.9771    0.0000 O   0  0  0  0  0  0  0  0  0  0  0  0
  -17.9042   -9.9839    0.0000 O   0  0  0  0  0  0  0  0  0  0  0  0
  -12.0547    0.7883    0.0000 O   0  0  0  0  0  0  0  0  0  0  0  0
  -23.5959   -4.2852    0.0000 O   0  0  0  0  0  0  0  0  0  0  0  0
   14.7552   -3.6335    0.0000 O   0  0  0  0  0  0  0  0  0  0  0  0
   22.0283    1.2619    0.0000 O   0  0  0  0  0  0  0  0  0  0  0  0
  -12.1499   10.7591    0.0000 O   0  0  0  0  0  0  0  0  0  0  0  0
  -14.7248    9.5665    0.0000 O   0  0  0  0  0  0  0  0  0  0  0  0
   19.1560    9.6514    0.0000 O   0  0  0  0  0  0  0  0  0  0  0  0
  -14.9444   11.3581    0.0000 O   0  0  0  0  0  0  0  0  0  0  0  0
   22.8317    8.8236    0.0000 O   0  0  0  0  0  0  0  0  0  0  0  0
   -0.2822   -1.9311    0.0000 N   0  0  0  0  0  0  0  0  0  0  0  0
    1.4810   -7.1640    0.0000 N   0  0  0  0  0  0  0  0  0  0  0  0
    7.3008   -4.6771    0.0000 N   0  0  0  0  0  0  0  0  0  0  0  0
   -7.2611   -2.2175    0.0000 N   0  0  0  0  0  0  0  0  0  0  0  0
    3.4793    1.4268    0.0000 N   0  0  0  0  0  0  0  0  0  0  0  0
   -5.0874   -7.2937    0.0000 N   0  0  0  0  0  0  0  0  0  0  0  0
  -16.1463    6.4672    0.0000 N   0  0  0  0  0  0  0  0  0  0  0  0
  -14.4263   -2.8193    0.0000 N   0  0  0  0  0  0  0  0  0  0  0  0
  -17.1353   -7.6312    0.0000 N   0  0  0  0  0  0  0  0  0  0  0  0
    8.3340    2.4499    0.0000 N   0  0  0  0  0  0  0  0  0  0  0  0
  -11.7192   -7.8731    0.0000 N   0  0  0  0  0  0  0  0  0  0  0  0
  -21.3331   -3.2824    0.0000 N   0  0  0  0  0  0  0  0  0  0  0  0
   14.2448   -1.2116    0.0000 N   0  0  0  0  0  0  0  0  0  0  0  0
  -20.9101    2.7470    0.0000 N   0  0  0  0  0  0  0  0  0  0  0  0
   19.3713    1.9902    0.0000 N   0  0  0  0  0  0  0  0  0  0  0  0
   -9.4669    3.7753    0.0000 N   0  0  0  0  0  0  0  0  0  0  0  0
   -1.5436   -1.5164    0.0000 N   0  0  0  0  0  0  0  0  0  0  0  0
    2.4678   -8.0526    0.0000 N   0  0  0  0  0  0  0  0  0  0  0  0
    7.3008   -6.0049    0.0000 N   0  0  0  0  0  0  0  0  0  0  0  0
   -7.1177   -0.8974    0.0000 N   0  0  0  0  0  0  0  0  0  0  0  0
    3.1846    2.8251    0.0000 N   0  0  0  0  0  0  0  0  0  0  0  0
   -6.4857   -7.5884    0.0000 N   0  0  0  0  0  0  0  0  0  0  0  0
   -0.5961   -3.4018    0.0000 N   0  0  0  0  0  0  0  0  0  0  0  0
    0.3609   -8.1674    0.0000 N   0  0  0  0  0  0  0  0  0  0  0  0
    5.8057   -4.5159    0.0000 N   0  0  0  0  0  0  0  0  0  0  0  0
  -16.9268    7.5415    0.0000 N   0  0  0  0  0  0  0  0  0  0  0  0
   -8.7649   -2.2162    0.0000 N   0  0  0  0  0  0  0  0  0  0  0  0
  -14.7210   -1.4210    0.0000 N   0  0  0  0  0  0  0  0  0  0  0  0
   20.5246    7.3178    0.0000 N   0  0  0  0  0  0  0  0  0  0  0  0
  -18.1989   -8.5855    0.0000 N   0  0  0  0  0  0  0  0  0  0  0  0
  -22.7539   -3.1305    0.0000 N   0  0  0  0  0  0  0  0  0  0  0  0
   15.1992   -2.2752    0.0000 N   0  0  0  0  0  0  0  0  0  0  0  0
  -13.1079    9.6987    0.0000 N   0  0  0  0  0  0  0  0  0  0  0  0
   20.2564    1.0004    0.0000 N   0  0  0  0  0  0  0  0  0  0  0  0
    8.0393    3.8482    0.0000 N   0  0  0  0  0  0  0  0  0  0  0  0
  -14.8420    7.2157    0.0000 N   0  0  0  0  0  0  0  0  0  0  0  0
  -13.1175   -8.1677    0.0000 N   0  0  0  0  0  0  0  0  0  0  0  0
  -21.7481    3.9046    0.0000 N   0  0  0  0  0  0  0  0  0  0  0  0
   20.3785    3.1070    0.0000 N   0  0  0  0  0  0  0  0  0  0  0  0
    5.0912   -5.7535    0.0000 N   0  0  0  0  0  0  0  0  0  0  0  0
   -1.9949   -3.6940    0.0000 N   0  0  0  0  0  0  0  0  0  0  0  0
    0.8024   -9.5265    0.0000 N   0  0  0  0  0  0  0  0  0  0  0  0
   -9.3416   -0.9088    0.0000 N   0  0  0  0  0  0  0  0  0  0  0  0
   -8.4066    2.8173    0.0000 N   0  0  0  0  0  0  0  0  0  0  0  0
   -2.9474   -2.6288    0.0000 N   0  0  0  0  0  0  0  0  0  0  0  0
    2.2002   -9.8235    0.0000 N   0  0  0  0  0  0  0  0  0  0  0  0
   21.7360    2.6607    0.0000 N   0  0  0  0  0  0  0  0  0  0  0  0
  -14.9914    8.6369    0.0000 N   0  0  0  0  0  0  0  0  0  0  0  0
   -8.4976    0.2445    0.0000 N   0  0  0  0  0  0  0  0  0  0  0  0
    6.6810    4.2922    0.0000 N   0  0  0  0  0  0  0  0  0  0  0  0
  -13.5615   -9.5260    0.0000 N   0  0  0  0  0  0  0  0  0  0  0  0
    4.3767   -4.5159    0.0000 N   0  0  0  0  0  0  0  0  0  0  0  0
  -23.1694    3.7576    0.0000 N   0  0  0  0  0  0  0  0  0  0  0  0
  -16.2969    9.2181    0.0000 N   0  0  0  0  0  0  0  0  0  0  0  0
   21.0647    8.5309    0.0000 N   0  0  0  0  0  0  0  0  0  0  0  0
  -13.5472   11.0585    0.0000 N   0  0  0  0  0  0  0  0  0  0  0  0
   21.8249    6.5625    0.0000 N   0  0  0  0  0  0  0  0  0  0  0  0
   -7.0468    3.2565    0.0000 N   0  0  0  0  0  0  0  0  0  0  0  0
   21.4438    4.0595    0.0000 N   0  0  0  0  0  0  0  0  0  0  0  0
   22.9811    7.4025    0.0000 N   0  0  0  0  0  0  0  0  0  0  0  0
   23.1304    5.9813    0.0000 N   0  0  0  0  0  0  0  0  0  0  0  0
    1.8132   -1.5222    0.0000 C   0  0  0  0  0  0  0  0  0  0  0  0
    0.7944   -5.1426    0.0000 C   0  0  0  0  0  0  0  0  0  0  0  0
    1.0289   -1.2659    0.0000 C   0  0  0  0  0  0  0  0  0  0  0  0
    1.4066   -5.6957    0.0000 C   0  0  0  0  0  0  0  0  0  0  0  0
    1.8117   -2.3472    0.0000 C   0  0  0  0  0  0  0  0  0  0  0  0
    0.0793   -5.5539    0.0000 C   0  0  0  0  0  0  0  0  0  0  0  0
    8.3437   -2.8142    0.0000 C   0  0  0  0  0  0  0  0  0  0  0  0
    5.1853    0.1433    0.0000 C   0  0  0  0  0  0  0  0  0  0  0  0
    0.5429   -1.9326    0.0000 C   0  0  0  0  0  0  0  0  0  0  0  0
    1.0697   -6.4488    0.0000 C   0  0  0  0  0  0  0  0  0  0  0  0
    8.3423   -3.6392    0.0000 C   0  0  0  0  0  0  0  0  0  0  0  0
   -3.2529   -6.2019    0.0000 C   0  0  0  0  0  0  0  0  0  0  0  0
   -6.4255   -4.1820    0.0000 C   0  0  0  0  0  0  0  0  0  0  0  0
    7.5595   -2.5579    0.0000 C   0  0  0  0  0  0  0  0  0  0  0  0
    4.8511    0.8976    0.0000 C   0  0  0  0  0  0  0  0  0  0  0  0
   -6.3378   -3.3617    0.0000 C   0  0  0  0  0  0  0  0  0  0  0  0
    4.5712   -0.4077    0.0000 C   0  0  0  0  0  0  0  0  0  0  0  0
   -3.6666   -6.9156    0.0000 C   0  0  0  0  0  0  0  0  0  0  0  0
   -3.8038   -5.5878    0.0000 C   0  0  0  0  0  0  0  0  0  0  0  0
   -7.2328   -4.3522    0.0000 C   0  0  0  0  0  0  0  0  0  0  0  0
    7.5572   -3.8928    0.0000 C   0  0  0  0  0  0  0  0  0  0  0  0
   -7.0909   -3.0247    0.0000 C   0  0  0  0  0  0  0  0  0  0  0  0
    4.0304    0.8127    0.0000 C   0  0  0  0  0  0  0  0  0  0  0  0
   -4.4733   -6.7427    0.0000 C   0  0  0  0  0  0  0  0  0  0  0  0
   -9.8847   -6.7812    0.0000 C   0  0  0  0  0  0  0  0  0  0  0  0
   10.0400    1.1664    0.0000 C   0  0  0  0  0  0  0  0  0  0  0  0
  -12.7203   -4.1028    0.0000 C   0  0  0  0  0  0  0  0  0  0  0  0
  -16.0924   -5.7683    0.0000 C   0  0  0  0  0  0  0  0  0  0  0  0
  -19.2509   -2.8109    0.0000 C   0  0  0  0  0  0  0  0  0  0  0  0
  -15.8951    4.3472    0.0000 C   0  0  0  0  0  0  0  0  0  0  0  0
    9.7056    1.9207    0.0000 C   0  0  0  0  0  0  0  0  0  0  0  0
  -10.2984   -7.4950    0.0000 C   0  0  0  0  0  0  0  0  0  0  0  0
    9.4259    0.6154    0.0000 C   0  0  0  0  0  0  0  0  0  0  0  0
  -13.0546   -3.3486    0.0000 C   0  0  0  0  0  0  0  0  0  0  0  0
  -10.4357   -6.1671    0.0000 C   0  0  0  0  0  0  0  0  0  0  0  0
  -16.0939   -6.5934    0.0000 C   0  0  0  0  0  0  0  0  0  0  0  0
  -16.3788    5.0155    0.0000 C   0  0  0  0  0  0  0  0  0  0  0  0
  -13.3344   -4.6539    0.0000 C   0  0  0  0  0  0  0  0  0  0  0  0
  -19.8649   -3.3619    0.0000 C   0  0  0  0  0  0  0  0  0  0  0  0
   14.2165    0.9231    0.0000 C   0  0  0  0  0  0  0  0  0  0  0  0
  -16.8767   -5.5121    0.0000 C   0  0  0  0  0  0  0  0  0  0  0  0
  -19.1664    1.5152    0.0000 C   0  0  0  0  0  0  0  0  0  0  0  0
  -19.5851   -2.0566    0.0000 C   0  0  0  0  0  0  0  0  0  0  0  0
  -15.1100    4.6007    0.0000 C   0  0  0  0  0  0  0  0  0  0  0  0
   14.6277    0.2079    0.0000 C   0  0  0  0  0  0  0  0  0  0  0  0
  -19.9868    1.6029    0.0000 C   0  0  0  0  0  0  0  0  0  0  0  0
   13.4092    0.7530    0.0000 C   0  0  0  0  0  0  0  0  0  0  0  0
    8.8850    1.8359    0.0000 C   0  0  0  0  0  0  0  0  0  0  0  0
  -18.8296    2.2684    0.0000 C   0  0  0  0  0  0  0  0  0  0  0  0
  -11.1052   -7.3220    0.0000 C   0  0  0  0  0  0  0  0  0  0  0  0
  -13.8753   -3.4334    0.0000 C   0  0  0  0  0  0  0  0  0  0  0  0
  -15.8928    5.6821    0.0000 C   0  0  0  0  0  0  0  0  0  0  0  0
  -16.8790   -6.8470    0.0000 C   0  0  0  0  0  0  0  0  0  0  0  0
    2.4783   -2.8333    0.0000 C   0  0  0  0  0  0  0  0  0  0  0  0
  -20.5787   -2.9481    0.0000 C   0  0  0  0  0  0  0  0  0  0  0  0
   -0.6739   -5.2170    0.0000 C   0  0  0  0  0  0  0  0  0  0  0  0
   14.0746   -0.4043    0.0000 C   0  0  0  0  0  0  0  0  0  0  0  0
  -20.1570    2.4102    0.0000 C   0  0  0  0  0  0  0  0  0  0  0  0
   17.7660    3.3977    0.0000 C   0  0  0  0  0  0  0  0  0  0  0  0
    7.3059   -1.7728    0.0000 C   0  0  0  0  0  0  0  0  0  0  0  0
    4.6560   -1.2284    0.0000 C   0  0  0  0  0  0  0  0  0  0  0  0
   18.5726    3.2247    0.0000 C   0  0  0  0  0  0  0  0  0  0  0  0
   -3.6309   -4.7811    0.0000 C   0  0  0  0  0  0  0  0  0  0  0  0
   17.3523    2.6838    0.0000 C   0  0  0  0  0  0  0  0  0  0  0  0
   -7.5696   -5.1053    0.0000 C   0  0  0  0  0  0  0  0  0  0  0  0
   18.6575    2.4040    0.0000 C   0  0  0  0  0  0  0  0  0  0  0  0
  -11.6015    3.8110    0.0000 C   0  0  0  0  0  0  0  0  0  0  0  0
    9.5107   -0.2053    0.0000 C   0  0  0  0  0  0  0  0  0  0  0  0
  -10.2628   -5.3604    0.0000 C   0  0  0  0  0  0  0  0  0  0  0  0
  -10.8877    3.3973    0.0000 C   0  0  0  0  0  0  0  0  0  0  0  0
  -13.2496   -5.4745    0.0000 C   0  0  0  0  0  0  0  0  0  0  0  0
  -17.1302   -4.7270    0.0000 C   0  0  0  0  0  0  0  0  0  0  0  0
  -19.1714   -1.3428    0.0000 C   0  0  0  0  0  0  0  0  0  0  0  0
  -11.4286    4.6177    0.0000 C   0  0  0  0  0  0  0  0  0  0  0  0
   12.7970    1.3061    0.0000 C   0  0  0  0  0  0  0  0  0  0  0  0
  -18.0223    2.4385    0.0000 C   0  0  0  0  0  0  0  0  0  0  0  0
  -14.4433    4.1147    0.0000 C   0  0  0  0  0  0  0  0  0  0  0  0
  -10.2736    3.9482    0.0000 C   0  0  0  0  0  0  0  0  0  0  0  0
   16.5316    2.5990    0.0000 C   0  0  0  0  0  0  0  0  0  0  0  0
   -0.7648   -2.5942    0.0000 C   0  0  0  0  0  0  0  0  0  0  0  0
    1.1455   -7.9124    0.0000 C   0  0  0  0  0  0  0  0  0  0  0  0
    6.5202   -4.9284    0.0000 C   0  0  0  0  0  0  0  0  0  0  0  0
   -0.0314   -0.3079    0.0000 C   0  0  0  0  0  0  0  0  0  0  0  0
    2.7649   -6.1397    0.0000 C   0  0  0  0  0  0  0  0  0  0  0  0
   -0.7626   -1.2663    0.0000 C   0  0  0  0  0  0  0  0  0  0  0  0
    2.2967   -7.2505    0.0000 C   0  0  0  0  0  0  0  0  0  0  0  0
   -8.0100   -1.8832    0.0000 C   0  0  0  0  0  0  0  0  0  0  0  0
  -11.9795    5.2318    0.0000 C   0  0  0  0  0  0  0  0  0  0  0  0
    9.7632   -3.7910    0.0000 C   0  0  0  0  0  0  0  0  0  0  0  0
    7.7823   -5.3410    0.0000 C   0  0  0  0  0  0  0  0  0  0  0  0
    6.0898    1.6100    0.0000 C   0  0  0  0  0  0  0  0  0  0  0  0
   -5.6211   -2.1254    0.0000 C   0  0  0  0  0  0  0  0  0  0  0  0
   -2.5120   -7.7576    0.0000 C   0  0  0  0  0  0  0  0  0  0  0  0
    2.6720    1.2567    0.0000 C   0  0  0  0  0  0  0  0  0  0  0  0
   -6.7107   -1.6094    0.0000 C   0  0  0  0  0  0  0  0  0  0  0  0
   -4.9172   -8.1010    0.0000 C   0  0  0  0  0  0  0  0  0  0  0  0
    3.7357    2.2110    0.0000 C   0  0  0  0  0  0  0  0  0  0  0  0
   -5.8716   -7.0374    0.0000 C   0  0  0  0  0  0  0  0  0  0  0  0
  -15.6625    7.1295    0.0000 C   0  0  0  0  0  0  0  0  0  0  0  0
  -11.8303    7.9884    0.0000 C   0  0  0  0  0  0  0  0  0  0  0  0
   -1.5486   -2.3365    0.0000 C   0  0  0  0  0  0  0  0  0  0  0  0
    1.7586   -8.4645    0.0000 C   0  0  0  0  0  0  0  0  0  0  0  0
   19.4264    5.4871    0.0000 C   0  0  0  0  0  0  0  0  0  0  0  0
  -12.5834    8.3253    0.0000 C   0  0  0  0  0  0  0  0  0  0  0  0
   18.8142    6.0402    0.0000 C   0  0  0  0  0  0  0  0  0  0  0  0
   19.1511    6.7934    0.0000 C   0  0  0  0  0  0  0  0  0  0  0  0
   10.9444    2.6330    0.0000 C   0  0  0  0  0  0  0  0  0  0  0  0
  -10.4503   -8.9159    0.0000 C   0  0  0  0  0  0  0  0  0  0  0  0
    6.5202   -5.7535    0.0000 C   0  0  0  0  0  0  0  0  0  0  0  0
  -11.8159   -2.6362    0.0000 C   0  0  0  0  0  0  0  0  0  0  0  0
  -15.5149   -7.8998    0.0000 C   0  0  0  0  0  0  0  0  0  0  0  0
  -17.6151    5.7321    0.0000 C   0  0  0  0  0  0  0  0  0  0  0  0
  -15.2336   -2.9894    0.0000 C   0  0  0  0  0  0  0  0  0  0  0  0
  -20.4485   -4.6663    0.0000 C   0  0  0  0  0  0  0  0  0  0  0  0
  -16.5843   -8.2453    0.0000 C   0  0  0  0  0  0  0  0  0  0  0  0
  -16.9261    6.7213    0.0000 C   0  0  0  0  0  0  0  0  0  0  0  0
   19.9715    6.7057    0.0000 C   0  0  0  0  0  0  0  0  0  0  0  0
    7.5267    2.2798    0.0000 C   0  0  0  0  0  0  0  0  0  0  0  0
  -11.2772    8.6005    0.0000 C   0  0  0  0  0  0  0  0  0  0  0  0
  -11.5491   -8.6804    0.0000 C   0  0  0  0  0  0  0  0  0  0  0  0
  -21.4207   -4.1027    0.0000 C   0  0  0  0  0  0  0  0  0  0  0  0
   -7.9209   -1.0631    0.0000 C   0  0  0  0  0  0  0  0  0  0  0  0
  -14.1699   -2.0351    0.0000 C   0  0  0  0  0  0  0  0  0  0  0  0
  -17.9426   -7.8013    0.0000 C   0  0  0  0  0  0  0  0  0  0  0  0
   15.9343    0.7868    0.0000 C   0  0  0  0  0  0  0  0  0  0  0  0
  -12.4958    9.1456    0.0000 C   0  0  0  0  0  0  0  0  0  0  0  0
  -21.3467    1.1636    0.0000 C   0  0  0  0  0  0  0  0  0  0  0  0
  -21.9996   -2.7963    0.0000 C   0  0  0  0  0  0  0  0  0  0  0  0
   13.6307   -1.7625    0.0000 C   0  0  0  0  0  0  0  0  0  0  0  0
   20.1208    2.3232    0.0000 C   0  0  0  0  0  0  0  0  0  0  0  0
    8.5903    3.2341    0.0000 C   0  0  0  0  0  0  0  0  0  0  0  0
   15.0290   -1.4679    0.0000 C   0  0  0  0  0  0  0  0  0  0  0  0
  -12.5034   -7.6167    0.0000 C   0  0  0  0  0  0  0  0  0  0  0  0
  -21.5783    2.2632    0.0000 C   0  0  0  0  0  0  0  0  0  0  0  0
   -0.2850    0.4772    0.0000 C   0  0  0  0  0  0  0  0  0  0  0  0
    2.1211    1.8708    0.0000 C   0  0  0  0  0  0  0  0  0  0  0  0
    3.5722   -5.9696    0.0000 C   0  0  0  0  0  0  0  0  0  0  0  0
  -20.9949    3.5677    0.0000 C   0  0  0  0  0  0  0  0  0  0  0  0
   19.4549    1.1743    0.0000 C   0  0  0  0  0  0  0  0  0  0  0  0
   -5.5313   -8.6520    0.0000 C   0  0  0  0  0  0  0  0  0  0  0  0
   19.9710    3.5194    0.0000 C   0  0  0  0  0  0  0  0  0  0  0  0
   19.3387    4.6667    0.0000 C   0  0  0  0  0  0  0  0  0  0  0  0
  -16.1475    7.7969    0.0000 C   0  0  0  0  0  0  0  0  0  0  0  0
   10.4298   -4.2772    0.0000 C   0  0  0  0  0  0  0  0  0  0  0  0
    6.5010    0.8948    0.0000 C   0  0  0  0  0  0  0  0  0  0  0  0
   -4.9059   -1.7141    0.0000 C   0  0  0  0  0  0  0  0  0  0  0  0
   -2.1777   -8.5119    0.0000 C   0  0  0  0  0  0  0  0  0  0  0  0
  -15.7846   -2.3754    0.0000 C   0  0  0  0  0  0  0  0  0  0  0  0
  -16.8406   -9.0294    0.0000 C   0  0  0  0  0  0  0  0  0  0  0  0
  -11.4711    2.0928    0.0000 C   0  0  0  0  0  0  0  0  0  0  0  0
  -22.1750   -4.4370    0.0000 C   0  0  0  0  0  0  0  0  0  0  0  0
    6.9757    2.8939    0.0000 C   0  0  0  0  0  0  0  0  0  0  0  0
  -12.1632   -9.2313    0.0000 C   0  0  0  0  0  0  0  0  0  0  0  0
   20.6708    1.7082    0.0000 C   0  0  0  0  0  0  0  0  0  0  0  0
   13.8009   -2.5698    0.0000 C   0  0  0  0  0  0  0  0  0  0  0  0
    2.3773    2.6550    0.0000 C   0  0  0  0  0  0  0  0  0  0  0  0
   -8.9138    4.3875    0.0000 C   0  0  0  0  0  0  0  0  0  0  0  0
   -6.3156   -8.3957    0.0000 C   0  0  0  0  0  0  0  0  0  0  0  0
   -2.1637   -2.8865    0.0000 C   0  0  0  0  0  0  0  0  0  0  0  0
    1.5871   -9.2715    0.0000 C   0  0  0  0  0  0  0  0  0  0  0  0
   11.3582    3.3468    0.0000 C   0  0  0  0  0  0  0  0  0  0  0  0
  -10.1160   -9.6702    0.0000 C   0  0  0  0  0  0  0  0  0  0  0  0
  -22.3315    2.6001    0.0000 C   0  0  0  0  0  0  0  0  0  0  0  0
  -11.4021   -1.9224    0.0000 C   0  0  0  0  0  0  0  0  0  0  0  0
  -14.8483   -8.3859    0.0000 C   0  0  0  0  0  0  0  0  0  0  0  0
  -18.4401    5.7335    0.0000 C   0  0  0  0  0  0  0  0  0  0  0  0
  -20.3636   -5.4870    0.0000 C   0  0  0  0  0  0  0  0  0  0  0  0
   -9.2134    2.9903    0.0000 C   0  0  0  0  0  0  0  0  0  0  0  0
    5.8057   -6.1660    0.0000 C   0  0  0  0  0  0  0  0  0  0  0  0
   16.7546    0.6992    0.0000 C   0  0  0  0  0  0  0  0  0  0  0  0
  -10.4568    8.5129    0.0000 C   0  0  0  0  0  0  0  0  0  0  0  0
  -21.8998    0.5515    0.0000 C   0  0  0  0  0  0  0  0  0  0  0  0
   -8.5867   -0.5758    0.0000 C   0  0  0  0  0  0  0  0  0  0  0  0
  -15.5283   -1.5912    0.0000 C   0  0  0  0  0  0  0  0  0  0  0  0
  -17.6479   -9.1996    0.0000 C   0  0  0  0  0  0  0  0  0  0  0  0
  -22.8416   -3.9509    0.0000 C   0  0  0  0  0  0  0  0  0  0  0  0
   20.5851    4.0704    0.0000 C   0  0  0  0  0  0  0  0  0  0  0  0
    7.2320    3.6781    0.0000 C   0  0  0  0  0  0  0  0  0  0  0  0
  -12.9474   -8.9750    0.0000 C   0  0  0  0  0  0  0  0  0  0  0  0
   14.5851   -2.8262    0.0000 C   0  0  0  0  0  0  0  0  0  0  0  0
    1.3138    1.7006    0.0000 C   0  0  0  0  0  0  0  0  0  0  0  0
    5.0912   -4.9284    0.0000 C   0  0  0  0  0  0  0  0  0  0  0  0
   -5.3612   -9.4593    0.0000 C   0  0  0  0  0  0  0  0  0  0  0  0
  -22.4163    3.4208    0.0000 C   0  0  0  0  0  0  0  0  0  0  0  0
  -15.8119    8.5507    0.0000 C   0  0  0  0  0  0  0  0  0  0  0  0
   -8.1071    4.2145    0.0000 C   0  0  0  0  0  0  0  0  0  0  0  0
   -1.2112   -3.9518    0.0000 C   0  0  0  0  0  0  0  0  0  0  0  0
    0.1893   -8.9744    0.0000 C   0  0  0  0  0  0  0  0  0  0  0  0
  -11.3863    1.2721    0.0000 C   0  0  0  0  0  0  0  0  0  0  0  0
  -16.5919   -2.5455    0.0000 C   0  0  0  0  0  0  0  0  0  0  0  0
  -16.2896   -9.6435    0.0000 C   0  0  0  0  0  0  0  0  0  0  0  0
   -9.4307   -1.7289    0.0000 C   0  0  0  0  0  0  0  0  0  0  0  0
   21.4783    1.8770    0.0000 C   0  0  0  0  0  0  0  0  0  0  0  0
  -22.2626   -5.2574    0.0000 C   0  0  0  0  0  0  0  0  0  0  0  0
    6.1684    2.7238    0.0000 C   0  0  0  0  0  0  0  0  0  0  0  0
  -11.9931  -10.0386    0.0000 C   0  0  0  0  0  0  0  0  0  0  0  0
   21.3400    7.2300    0.0000 C   0  0  0  0  0  0  0  0  0  0  0  0
   13.1867   -3.1209    0.0000 C   0  0  0  0  0  0  0  0  0  0  0  0
  -22.9998    2.1164    0.0000 C   0  0  0  0  0  0  0  0  0  0  0  0
   20.3547    8.1202    0.0000 C   0  0  0  0  0  0  0  0  0  0  0  0
  -14.0124    8.3278    0.0000 C   0  0  0  0  0  0  0  0  0  0  0  0
   -7.8534    3.4294    0.0000 C   0  0  0  0  0  0  0  0  0  0  0  0
   19.1536    8.2223    0.0000 C   0  0  0  0  0  0  0  0  0  0  0  0
  -13.8930    9.4452    0.0000 C   0  0  0  0  0  0  0  0  0  0  0  0
  -14.5065    7.9694    0.0000 C   0  0  0  0  0  0  0  0  0  0  0  0
   21.1861    3.2757    0.0000 C   0  0  0  0  0  0  0  0  0  0  0  0
  -12.9350   10.5054    0.0000 C   0  0  0  0  0  0  0  0  0  0  0  0
   21.6756    7.9837    0.0000 C   0  0  0  0  0  0  0  0  0  0  0  0
   -7.5540    4.8267    0.0000 C   0  0  0  0  0  0  0  0  0  0  0  0
  -14.5052    9.9983    0.0000 C   0  0  0  0  0  0  0  0  0  0  0  0
   -1.3452    1.4352    0.0000 C   0  0  0  0  0  0  0  0  0  0  0  0
    3.8669   -7.3678    0.0000 C   0  0  0  0  0  0  0  0  0  0  0  0
  -14.0110    9.1528    0.0000 C   0  0  0  0  0  0  0  0  0  0  0  0
   18.7423    8.9375    0.0000 C   0  0  0  0  0  0  0  0  0  0  0  0
   11.8507   -4.4290    0.0000 C   0  0  0  0  0  0  0  0  0  0  0  0
    7.7374    0.1781    0.0000 C   0  0  0  0  0  0  0  0  0  0  0  0
   -4.1893   -0.4778    0.0000 C   0  0  0  0  0  0  0  0  0  0  0  0
   -2.3296   -9.9328    0.0000 C   0  0  0  0  0  0  0  0  0  0  0  0
  -14.3323   10.8050    0.0000 C   0  0  0  0  0  0  0  0  0  0  0  0
   11.3607    4.7758    0.0000 C   0  0  0  0  0  0  0  0  0  0  0  0
  -10.2678  -11.0911    0.0000 C   0  0  0  0  0  0  0  0  0  0  0  0
   22.4961    8.0699    0.0000 C   0  0  0  0  0  0  0  0  0  0  0  0
  -11.3996   -0.4934    0.0000 C   0  0  0  0  0  0  0  0  0  0  0  0
  -15.6902   -9.5406    0.0000 C   0  0  0  0  0  0  0  0  0  0  0  0
  -19.6765    6.4502    0.0000 C   0  0  0  0  0  0  0  0  0  0  0  0
  -20.9471   -6.7915    0.0000 C   0  0  0  0  0  0  0  0  0  0  0  0
   17.9092   -0.1427    0.0000 C   0  0  0  0  0  0  0  0  0  0  0  0
  -23.2596    0.1122    0.0000 C   0  0  0  0  0  0  0  0  0  0  0  0
  -15.2903    9.7447    0.0000 C   0  0  0  0  0  0  0  0  0  0  0  0
   21.0290    5.4287    0.0000 C   0  0  0  0  0  0  0  0  0  0  0  0
   22.6454    6.6487    0.0000 C   0  0  0  0  0  0  0  0  0  0  0  0
  -12.8078    1.1252    0.0000 C   0  0  0  0  0  0  0  0  0  0  0  0
  -14.7234   10.3916    0.0000 C   0  0  0  0  0  0  0  0  0  0  0  0
   18.7448   10.3665    0.0000 C   0  0  0  0  0  0  0  0  0  0  0  0
  1 18  2  0
  2 19  2  0
  3 20  2  0
  4 21  2  0
  5 22  2  0
  6 23  2  0
  7 24  2  0
  8 25  2  0
  9 26  2  0
 10 27  2  0
 11 28  2  0
 12 29  2  0
 13 30  2  0
 14 31  2  0
 15 32  2  0
 16 33  2  0
 17 34  2  0
 18 41  1  0
 18 63  1  0
 18 98  1  0
 19 42  1  0
 19 70  1  0
 19 99  1  0
 20 50  1  0
 20 67  1  0
 20100  1  0
 21 49  1  0
 21 72  1  0
 21102  1  0
 22 52  1  0
 22 74  1  0
 22103  1  0
 23 51  1  0
 23 84  1  0
 23105  1  0
 24 62  1  0
 24 80  1  0
 24107  1  0
 25 65  1  0
 25 86  1  0
 25110  1  0
 26 66  1  0
 26 88  1  0
 26111  1  0
 27 64  1  0
 27 90  1  0
 27112  1  0
 28 68  1  0
 28 89  1  0
 28113  1  0
 29 69  1  0
 29 93  1  0
 29114  1  0
 30 71  1  0
 30 91  1  0
 30115  1  0
 31 73  1  0
 31 96  1  0
 31116  1  0
 32 94  1  0
 32 95  1  0
 32119  1  0
 33 87  1  0
 33108  1  0
 33123  1  0
 34104  1  0
 34109  1  0
 34143  1  0
 35228  1  0
 35232  1  0
 36229  1  0
 36233  1  0
 37237  1  0
 37244  1  0
 38240  1  0
 38246  1  0
 39243  1  0
 39245  1  0
 40242  1  0
 40247  1  0
225 41  1  1
224 42  1  6
 43256  1  0
 43271  1  0
 44258  1  0
 44273  1  0
 45261  1  0
 45274  1  0
 46264  1  0
 46276  1  0
 47267  1  0
 47275  1  0
 48266  1  0
 48278  1  0
231 49  1  6
235 50  1  1
230 51  1  1
236 52  1  6
226 53  1  6
 53306  1  0
227 54  1  1
 54307  1  0
 55270  1  0
 55280  1  0
 56272  1  0
 56281  1  0
234 57  1  1
 57312  1  0
238 58  1  6
 58314  1  0
239 59  1  6
 59315  1  0
241 60  1  1
 60316  1  0
 61287  1  0
 61289  1  0
248 62  1  1
 63277  1  0
249 64  1  6
250 65  1  6
251 66  1  1
 67279  1  0
252 68  1  1
253 69  1  1
 70284  1  0
265 71  1  1
 72283  1  0
263 73  1  1
 74286  1  0
254 75  1  6
 75330  1  0
255 76  1  1
 76331  1  0
257 77  1  6
 77333  1  0
259 78  1  1
 78334  1  0
260 79  1  1
 79335  1  0
 80288  1  0
262 81  1  1
 81337  1  0
 82297  1  0
 82301  1  0
268 83  1  1
 83348  1  0
 84291  1  0
269 85  1  1
 85350  1  0
 86292  1  0
282 87  1  1
 88294  1  0
 89295  1  0
 90298  1  0
 91296  1  0
285 92  1  1
 92364  1  0
 93299  1  0
290 94  1  6
 95300  1  0
 96302  1  0
293 97  1  6
 97373  1  0
101326  1  0
101340  1  0
104311  1  0
106342  1  0
106349  1  0
108365  1  0
323109  1  1
327117  1  1
117424  1  0
329118  1  1
118426  1  0
328120  1  1
121320  2  0
122321  2  0
124358  1  0
124434  1  0
125360  1  0
125435  1  0
126367  1  0
126438  1  0
127368  1  0
127439  1  0
128346  2  0
129369  1  0
129440  1  0
130347  2  0
131370  1  0
131441  1  0
132351  2  0
133354  2  0
134355  2  0
135356  2  0
136361  2  0
137384  1  0
137443  1  0
138385  1  0
138444  1  0
139387  1  0
139446  1  0
140388  1  0
140447  1  0
141389  1  0
141448  1  0
142390  1  0
142449  1  0
144393  1  0
144450  1  0
145395  1  0
145451  1  0
146394  1  0
147379  2  0
148400  1  0
148453  1  0
149381  2  0
150391  2  0
151392  2  0
152397  2  0
153398  2  0
154412  1  0
154455  1  0
155399  2  0
156403  2  0
157416  2  0
158430  2  0
159436  1  0
159456  1  0
160437  1  0
160457  1  0
161442  2  0
162445  2  0
232163  1  1
163303  1  0
163308  1  0
233164  1  6
164304  1  0
164309  1  0
244165  1  6
165305  1  0
165313  1  0
245166  1  1
166310  1  0
166318  1  0
246167  1  1
167317  1  0
167320  1  0
247168  1  6
168319  1  0
168321  1  0
275169  1  6
169322  1  0
169339  1  0
274170  1  1
170336  1  0
170346  1  0
276171  1  6
171338  1  0
171347  1  0
271172  1  1
172341  1  0
172354  1  0
273173  1  6
173343  1  0
173356  1  0
278174  1  6
174344  1  0
174351  1  0
280175  1  6
175352  1  0
175355  1  0
281176  1  6
176357  1  0
176361  1  0
289177  1  6
177353  1  0
177362  1  0
301178  1  1
178380  1  0
178391  1  0
179308  2  0
179324  1  0
180309  2  0
180325  1  0
181313  2  0
181332  1  0
182318  2  0
182345  1  0
183320  1  0
183379  1  0
184321  1  0
184381  1  0
185303  1  0
185410  2  0
186304  1  0
186411  2  0
187305  1  0
187405  2  0
188339  2  0
188366  1  0
189310  1  0
189415  2  0
190346  1  0
190397  1  0
340191  1  6
191420  1  0
191423  1  0
192347  1  0
192398  1  0
193351  1  0
193399  1  0
194355  1  0
194403  1  0
349195  1  6
195427  1  0
195430  1  0
196362  2  0
196377  1  0
197354  1  0
197401  2  0
198322  1  0
198428  2  0
199356  1  0
199402  2  0
200361  1  0
200407  2  0
201353  1  0
201429  2  0
202392  1  0
202405  1  0
203382  2  0
203410  1  0
204383  2  0
204411  1  0
205396  2  0
205415  1  0
206391  1  0
206425  2  0
207382  1  0
208383  1  0
209416  1  0
209429  1  0
210408  2  0
210428  1  0
211396  1  0
212401  1  0
213402  1  0
214405  1  0
215407  1  0
216408  1  0
217423  2  0
217431  1  0
218430  1  0
218442  1  0
219420  1  0
219454  2  0
220425  1  0
221429  1  0
222445  1  0
222454  1  0
223454  1  0
224226  1  0
224228  1  0
225227  1  0
225229  1  0
226232  1  0
227233  1  0
228277  1  1
229279  1  6
230234  1  0
230237  1  0
231238  1  0
231240  1  0
234244  1  0
235241  1  0
235242  1  0
236239  1  0
236243  1  0
237283  1  6
238246  1  0
239245  1  0
240284  1  1
241247  1  0
242286  1  6
243288  1  1
248255  1  0
248258  1  0
249254  1  0
249256  1  0
250257  1  0
250261  1  0
251259  1  0
251264  1  0
252262  1  0
252266  1  0
253260  1  0
253267  1  0
254271  1  0
255273  1  0
256291  1  1
257274  1  0
258292  1  6
259276  1  0
260275  1  0
261294  1  1
262278  1  0
263268  1  0
263270  1  0
264295  1  6
265269  1  0
265272  1  0
266296  1  6
267300  1  6
268280  1  0
269281  1  0
270298  1  6
272299  1  6
282285  1  0
282287  1  0
285289  1  0
287302  1  6
290293  1  0
290297  1  0
293301  1  0
297311  1  1
303324  2  0
304325  2  0
305332  2  0
306358  1  0
307360  1  0
310345  2  0
312367  1  0
314368  1  0
315369  1  0
316370  1  0
317359  2  0
319363  2  0
322366  2  0
323327  1  0
323342  1  0
324382  1  0
325383  1  0
326328  1  0
326365  1  6
327349  1  0
328329  1  0
329340  1  0
330384  1  0
331385  1  0
332392  1  0
333387  1  0
334388  1  0
335389  1  0
336371  2  0
337390  1  0
338372  2  0
341375  2  0
342394  1  6
343376  2  0
344374  2  0
345396  1  0
348393  1  0
350395  1  0
352378  2  0
353377  2  0
357386  2  0
359379  1  0
359404  1  0
363381  1  0
363406  1  0
364400  1  0
366408  1  0
371397  1  0
371413  1  0
372398  1  0
372414  1  0
373412  1  0
374399  1  0
374417  1  0
375401  1  0
375418  1  0
376402  1  0
376419  1  0
377416  1  0
378403  1  0
378421  1  0
380409  2  0
386407  1  0
386422  1  0
409425  1  0
409432  1  0
420431  2  0
424436  1  0
426437  1  0
427433  2  0
431445  1  0
433442  1  0
433452  1  0
V    1 0
V    2 1
V    3 2
V    4 3
V    5 4
V    6 5
V    7 6
V    8 7
V    9 8
V   10 9
V   11 10
V   12 11
V   13 12
V   14 13
V   15 14
V   16 15
V   17 16
V   18 17
V   19 18
V   20 19
V   21 20
V   22 21
V   23 22
V   24 23
V   25 24
V   26 25
V   27 26
V   28 27
V   29 28
V   30 29
V   31 30
V   32 31
V   33 32
V   34 33
V   35 34
V   36 35
V   37 36
V   38 37
V   39 38
V   40 39
V   41 40
V   42 41
V   43 42
V   44 43
V   45 44
V   46 45
V   47 46
V   48 47
V   49 48
V   50 49
V   51 50
V   52 51
V   53 52
V   54 53
V   55 54
V   56 55
V   57 56
V   58 57
V   59 58
V   60 59
V   61 60
V   62 61
V   63 62
V   64 63
V   65 64
V   66 65
V   67 66
V   68 67
V   69 68
V   70 69
V   71 70
V   72 71
V   73 72
V   74 73
V   75 74
V   76 75
V   77 76
V   78 77
V   79 78
V   80 79
V   81 80
V   82 81
V   83 82
V   84 83
V   85 84
V   86 85
V   87 86
V   88 87
V   89 88
V   90 89
V   91 90
V   92 91
V   93 92
V   94 93
V   95 94
V   96 95
V   97 96
V   98 97
V   99 98
V  100 99
V  101 100
V  102 101
V  103 102
V  104 103
V  105 104
V  106 105
V  107 106
V  108 107
V  109 108
V  110 109
V  111 110
V  112 111
V  113 112
V  114 113
V  115 114
V  116 115
V  117 116
V  118 117
V  119 118
V  120 119
V  121 120
V  122 121
V  123 122
V  124 123
V  125 124
V  126 125
V  127 126
V  128 127
V  129 128
V  130 129
V  131 130
V  132 131
V  133 132
V  134 133
V  135 134
V  136 135
V  137 136
V  138 137
V  139 138
V  140 139
V  141 140
V  142 141
V  143 142
V  144 143
V  145 144
V  146 145
V  147 146
V  148 147
V  149 148
V  150 149
V  151 150
V  152 151
V  153 152
V  154 153
V  155 154
V  156 155
V  157 156
V  158 157
V  159 158
V  160 159
V  161 160
V  162 161
V  163 162
V  164 163
V  165 164
V  166 165
V  167 166
V  168 167
V  169 168
V  170 169
V  171 170
V  172 171
V  173 172
V  174 173
V  175 174
V  176 175
V  177 176
V  178 177
V  179 178
V  180 179
V  181 180
V  182 181
V  183 182
V  184 183
V  185 184
V  186 185
V  187 186
V  188 187
V  189 188
V  190 189
V  191 190
V  192 191
V  193 192
V  194 193
V  195 194
V  196 195
V  197 196
V  198 197
V  199 198
V  200 199
V  201 200
V  202 201
V  203 202
V  204 203
V  205 204
V  206 205
V  207 206
V  208 207
V  209 208
V  210 209
V  211 210
V  212 211
V  213 212
V  214 213
V  215 214
V  216 215
V  217 216
V  218 217
V  219 218
V  220 219
V  221 220
V  222 221
V  223 222
V  224 223
V  225 224
V  226 225
V  227 226
V  228 227
V  229 228
V  230 229
V  231 230
V  232 231
V  233 232
V  234 233
V  235 234
V  236 235
V  237 236
V  238 237
V  239 238
V  240 239
V  241 240
V  242 241
V  243 242
V  244 243
V  245 244
V  246 245
V  247 246
V  248 247
V  249 248
V  250 249
V  251 250
V  252 251
V  253 252
V  254 253
V  255 254
V  256 255
V  257 256
V  258 257
V  259 258
V  260 259
V  261 260
V  262 261
V  263 262
V  264 263
V  265 264
V  266 265
V  267 266
V  268 267
V  269 268
V  270 269
V  271 270
V  272 271
V  273 272
V  274 273
V  275 274
V  276 275
V  277 276
V  278 277
V  279 278
V  280 279
V  281 280
V  282 281
V  283 282
V  284 283
V  285 284
V  286 285
V  287 286
V  288 287
V  289 288
V  290 289
V  291 290
V  292 291
V  293 292
V  294 293
V  295 294
V  296 295
V  297 296
V  298 297
V  299 298
V  300 299
V  301 300
V  302 301
V  303 302
V  304 303
V  305 304
V  306 305
V  307 306
V  308 307
V  309 308
V  310 309
V  311 310
V  312 311
V  313 312
V  314 313
V  315 314
V  316 315
V  317 316
V  318 317
V  319 318
V  320 319
V  321 320
V  322 321
V  323 322
V  324 323
V  325 324
V  326 325
V  327 326
V  328 327
V  329 328
V  330 329
V  331 330
V  332 331
V  333 332
V  334 333
V  335 334
V  336 335
V  337 336
V  338 337
V  339 338
V  340 339
V  341 340
V  342 341
V  343 342
V  344 343
V  345 344
V  346 345
V  347 346
V  348 347
V  349 348
V  350 349
V  351 350
V  352 351
V  353 352
V  354 353
V  355 354
V  356 355
V  357 356
V  358 357
V  359 358
V  360 359
V  361 360
V  362 361
V  363 362
V  364 363
V  365 364
V  366 365
V  367 366
V  368 367
V  369 368
V  370 369
V  371 370
V  372 371
V  373 372
V  374 373
V  375 374
V  376 375
V  377 376
V  378 377
V  379 378
V  380 379
V  381 380
V  382 381
V  383 382
V  384 383
V  385 384
V  386 385
V  387 386
V  388 387
V  389 388
V  390 389
V  391 390
V  392 391
V  393 392
V  394 393
V  395 394
V  396 395
V  397 396
V  398 397
V  399 398
V  400 399
V  401 400
V  402 401
V  403 402
V  404 403
V  405 404
V  406 405
V  407 406
V  408 407
V  409 408
V  410 409
V  411 410
V  412 411
V  413 412
V  414 413
V  415 414
V  416 415
V  417 416
V  418 417
V  419 418
V  420 419
V  421 420
V  422 421
V  423 422
V  424 423
V  425 424
V  426 425
V  427 426
V  428 427
V  429 428
V  430 429
V  431 430
V  432 431
V  433 432
V  434 433
V  435 434
V  436 435
V  437 436
V  438 437
V  439 438
V  440 439
V  441 440
V  442 441
V  443 442
V  444 443
V  445 444
V  446 445
V  447 446
V  448 447
V  449 448
V  450 449
V  451 450
V  452 451
V  453 452
V  454 453
V  455 454
V  456 455
V  457 456
M  END
