 
     RDKit          2D

 86 88  0  0  0  0  0  0  0  0999 V2000
   29.4485  -16.2910    0.0000 C   0  0  0  0  0  0  0  0  0  0  0  0
   28.2596  -16.9904    0.0000 C   0  0  0  0  0  0  0  0  0  0  0  0
   30.7073  -16.9904    0.0000 C   0  0  0  0  0  0  0  0  0  0  0  0
   29.4485  -14.8924    0.0000 C   0  0  0  0  0  0  0  0  0  0  0  0
   27.0708  -16.2910    0.0000 C   0  0  0  0  0  0  0  0  0  0  0  0
   28.2596  -18.3890    0.0000 O   0  0  0  0  0  0  0  0  0  0  0  0
   31.8961  -16.2910    0.0000 C   0  0  0  0  0  0  0  0  0  0  0  0
   30.7073  -14.1930    0.0000 C   0  0  0  0  0  0  0  0  0  0  0  0
   25.8120  -16.9904    0.0000 C   0  0  0  0  0  0  0  0  0  0  0  0
   27.0708  -14.8924    0.0000 C   0  0  0  0  0  0  0  0  0  0  0  0
   31.8961  -14.8924    0.0000 C   0  0  0  0  0  0  0  0  0  0  0  0
   24.6231  -16.2910    0.0000 C   0  0  0  0  0  0  0  0  0  0  0  0
   25.8120  -14.1930    0.0000 C   0  0  0  0  0  0  0  0  0  0  0  0
   33.0850  -14.1930    0.0000 O   0  0  0  0  0  0  0  0  0  0  0  0
   24.6231  -14.8924    0.0000 C   0  0  0  0  0  0  0  0  0  0  0  0
   34.3438  -14.8924    0.0000 C   0  0  0  0  0  0  0  0  0  0  0  0
   23.4343  -14.1930    0.0000 Cl  0  0  0  0  0  0  0  0  0  0  0  0
   35.5326  -14.1930    0.0000 C   0  0  0  0  0  0  0  0  0  0  0  0
   36.7215  -14.8924    0.0000 O   0  0  0  0  0  0  0  0  0  0  0  0
   35.5326  -12.7943    0.0000 O   0  0  0  0  0  0  0  0  0  0  0  0
   37.9804  -14.1930    0.0000 C   0  0  0  0  0  0  0  0  0  0  0  0
   39.1692  -14.8924    0.0000 C   0  0  0  0  0  0  0  0  0  0  0  0
   37.9804  -12.7943    0.0000 C   0  0  0  0  0  0  0  0  0  0  0  0
   33.6445  -16.1036    0.0000 C   0  0  0  0  0  0  0  0  0  0  0  0
   35.0431  -16.1036    0.0000 C   0  0  0  0  0  0  0  0  0  0  0  0
   19.2220  -19.6458    0.0000 C   0  0  0  0  0  0  0  0  0  0  0  0
   20.4805  -18.9466    0.0000 C   0  0  0  0  0  0  0  0  0  0  0  0
   18.0333  -18.9466    0.0000 C   0  0  0  0  0  0  0  0  0  0  0  0
   19.2220  -21.0442    0.0000 C   0  0  0  0  0  0  0  0  0  0  0  0
   21.7392  -19.6458    0.0000 C   0  0  0  0  0  0  0  0  0  0  0  0
   20.4805  -17.5481    0.0000 C   0  0  0  0  0  0  0  0  0  0  0  0
   16.8447  -19.6458    0.0000 C   0  0  0  0  0  0  0  0  0  0  0  0
   18.1032  -17.5481    0.0000 O   0  0  0  0  0  0  0  0  0  0  0  0
   18.0333  -21.7434    0.0000 C   0  0  0  0  0  0  0  0  0  0  0  0
   20.4805  -21.7434    0.0000 C   0  0  0  0  0  0  0  0  0  0  0  0
   21.7391  -21.0442    0.0000 C   0  0  0  0  0  0  0  0  0  0  0  0
   22.9278  -18.9466    0.0000 C   0  0  0  0  0  0  0  0  0  0  0  0
   21.6692  -16.7790    0.0000 C   0  0  0  0  0  0  0  0  0  0  0  0
   16.8447  -21.0442    0.0000 C   0  0  0  0  0  0  0  0  0  0  0  0
   16.8447  -16.8489    0.0000 C   0  0  0  0  0  0  0  0  0  0  0  0
   21.6692  -15.4505    0.0000 C   0  0  0  0  0  0  0  0  0  0  0  0
   15.6560  -21.7434    0.0000 O   0  0  0  0  0  0  0  0  0  0  0  0
   15.5162  -17.4782    0.0000 C   0  0  0  0  0  0  0  0  0  0  0  0
   16.8447  -15.4505    0.0000 O   0  0  0  0  0  0  0  0  0  0  0  0
   22.8578  -14.7513    0.0000 C   0  0  0  0  0  0  0  0  0  0  0  0
   20.4805  -14.7513    0.0000 O   0  0  0  0  0  0  0  0  0  0  0  0
   14.3275  -16.7790    0.0000 C   0  0  0  0  0  0  0  0  0  0  0  0
   15.5162  -18.8766    0.0000 C   0  0  0  0  0  0  0  0  0  0  0  0
   22.8578  -13.3529    0.0000 C   0  0  0  0  0  0  0  0  0  0  0  0
   13.1389  -17.4782    0.0000 C   0  0  0  0  0  0  0  0  0  0  0  0
   21.5993  -12.6537    0.0000 C   0  0  0  0  0  0  0  0  0  0  0  0
   24.0465  -12.6537    0.0000 O   0  0  0  0  0  0  0  0  0  0  0  0
   21.5992  -11.2553    0.0000 C   0  0  0  0  0  0  0  0  0  0  0  0
   22.8578  -10.6260    0.0000 O   0  0  0  0  0  0  0  0  0  0  0  0
   20.4106  -10.5561    0.0000 O   0  0  0  0  0  0  0  0  0  0  0  0
   23.0209  -21.3559    0.0000 C   0  0  0  0  0  0  0  0  0  0  0  0
   24.2277  -20.6597    0.0000 C   0  0  0  0  0  0  0  0  0  0  0  0
   21.8141  -20.6540    0.0000 C   0  0  0  0  0  0  0  0  0  0  0  0
   23.0152  -22.7543    0.0000 C   0  0  0  0  0  0  0  0  0  0  0  0
   25.4345  -21.3675    0.0000 C   0  0  0  0  0  0  0  0  0  0  0  0
   24.2335  -19.2674    0.0000 C   0  0  0  0  0  0  0  0  0  0  0  0
   20.6014  -21.3559    0.0000 C   0  0  0  0  0  0  0  0  0  0  0  0
   21.7444  -18.9309    0.0000 O   0  0  0  0  0  0  0  0  0  0  0  0
   21.8141  -23.4447    0.0000 C   0  0  0  0  0  0  0  0  0  0  0  0
   24.2161  -23.4506    0.0000 C   0  0  0  0  0  0  0  0  0  0  0  0
   25.4288  -22.7600    0.0000 C   0  0  0  0  0  0  0  0  0  0  0  0
   26.6471  -20.6713    0.0000 C   0  0  0  0  0  0  0  0  0  0  0  0
   25.4460  -18.5768    0.0000 C   0  0  0  0  0  0  0  0  0  0  0  0
   20.6014  -22.7543    0.0000 C   0  0  0  0  0  0  0  0  0  0  0  0
   20.6536  -18.2287    0.0000 C   0  0  0  0  0  0  0  0  0  0  0  0
   19.3947  -23.4447    0.0000 O   0  0  0  0  0  0  0  0  0  0  0  0
   19.4469  -18.9250    0.0000 C   0  0  0  0  0  0  0  0  0  0  0  0
   20.6536  -16.8362    0.0000 O   0  0  0  0  0  0  0  0  0  0  0  0
   18.2402  -18.2287    0.0000 C   0  0  0  0  0  0  0  0  0  0  0  0
   19.4469  -20.3174    0.0000 C   0  0  0  0  0  0  0  0  0  0  0  0
   17.0276  -18.9250    0.0000 C   0  0  0  0  0  0  0  0  0  0  0  0
   25.4276  -17.1575    0.0000 C   0  0  0  0  0  0  0  0  0  0  0  0
   24.2075  -16.4743    0.0000 C   0  0  0  0  0  0  0  0  0  0  0  0
   26.6293  -16.4427    0.0000 O   0  0  0  0  0  0  0  0  0  0  0  0
   24.2156  -15.0601    0.0000 C   0  0  0  0  0  0  0  0  0  0  0  0
   25.4307  -14.3679    0.0000 C   0  0  0  0  0  0  0  0  0  0  0  0
   23.0087  -14.3541    0.0000 O   0  0  0  0  0  0  0  0  0  0  0  0
   26.8259  -14.3609    0.0000 C   0  0  0  0  0  0  0  0  0  0  0  0
   27.5310  -15.5685    0.0000 O   0  0  0  0  0  0  0  0  0  0  0  0
   27.5189  -13.1465    0.0000 O   0  0  0  0  0  0  0  0  0  0  0  0
   29.1409  -15.4559    0.0000 Na  0  0  0  0  0 15  0  0  0  0  0  0
  1  2  1  0
  1  3  2  0
  1  4  1  0
  2  5  1  0
  2  6  2  0
  3  7  1  0
  4  8  2  0
  5  9  2  0
  5 10  1  0
  7 11  2  0
  9 12  1  0
 10 13  2  0
 11 14  1  0
 12 15  2  0
 14 16  1  0
 15 17  1  0
 16 18  1  0
 18 19  1  0
 18 20  2  0
 19 21  1  0
 21 22  1  0
 21 23  1  0
  8 11  1  0
 13 15  1  0
 16 24  1  0
 16 25  1  0
 26 27  1  0
 26 28  1  0
 26 29  1  6
 27 30  1  0
 27 31  1  1
 28 32  1  0
 28 33  1  6
 29 34  2  0
 29 35  1  0
 30 36  1  0
 30 37  1  1
 31 38  1  0
 32 39  1  0
 33 40  1  0
 38 41  1  0
 39 42  1  1
 40 43  1  0
 40 44  2  0
 41 45  1  0
 41 46  1  1
 43 47  1  0
 43 48  1  1
 45 49  1  0
 47 50  1  0
 49 51  1  0
 49 52  1  6
 51 53  1  0
 53 54  1  0
 53 55  2  0
 34 39  1  0
 35 36  2  0
 56 57  1  0
 56 58  1  0
 56 59  1  6
 57 60  1  0
 57 61  1  1
 58 62  1  0
 58 63  1  6
 59 64  2  0
 59 65  1  0
 60 66  1  0
 60 67  1  1
 61 68  1  0
 62 69  1  0
 63 70  1  0
 69 71  1  1
 70 72  1  0
 70 73  2  0
 72 74  1  0
 72 75  1  1
 74 76  1  0
 64 69  1  0
 65 66  2  0
 77 68  1  0
 77 78  1  0
 77 79  1  6
 78 80  1  0
 80 81  1  0
 80 82  1  1
 81 83  1  0
 83 84  1  0
 83 85  2  0
M  CHG  2  84  -1  86   1
M  END
