 
     RDKit          2D

133145  0  0  1  0  0  0  0  0999 V2000
   23.5200  -27.9300    0.0000 C   0  0  0  0  0  0  0  0  0  0  0  0
   22.8200  -29.3300    0.0000 C   0  0  0  0  0  0  0  0  0  0  0  0
   22.8200  -30.5900    0.0000 C   0  0  0  0  0  0  0  0  0  0  0  0
   22.3300  -29.8900    0.0000 C   0  0  0  0  0  0  0  0  0  0  0  0
   24.6400  -29.8900    0.0000 C   0  0  0  0  0  0  0  0  0  0  0  0
   21.2800  -31.0100    0.0000 C   0  0  0  0  0  0  0  0  0  0  0  0
   23.9400  -31.5700    0.0000 C   0  0  0  0  0  0  0  0  0  0  0  0
   22.3300  -28.5600    0.0000 C   0  0  0  0  0  0  0  0  0  0  0  0
   23.5200  -30.5200    0.0000 C   0  0  0  0  0  0  0  0  0  0  0  0
   24.6400  -28.5600    0.0000 C   0  0  0  0  0  0  0  0  0  0  0  0
   23.5200  -26.5300    0.0000 C   0  0  0  0  0  0  0  0  0  0  0  0
   24.7100  -25.8300    0.0000 C   0  0  0  0  0  0  0  0  0  0  0  0
   22.3300  -25.8300    0.0000 N   0  0  0  0  0  0  0  0  0  0  0  0
   25.9000  -26.5300    0.0000 N   0  0  0  0  0  0  0  0  0  0  0  0
   24.7100  -24.4300    0.0000 O   0  0  0  0  0  0  0  0  0  0  0  0
   26.3900  -27.8600    0.0000 C   0  0  0  0  0  0  0  0  0  0  0  0
   27.7900  -27.8600    0.0000 C   0  0  0  0  0  0  0  0  0  0  0  0
   28.2100  -26.4600    0.0000 C   0  0  0  0  0  0  0  0  0  0  0  0
   27.0200  -25.6900    0.0000 C   0  0  0  0  0  0  0  0  0  0  0  0
   27.0200  -24.2900    0.0000 C   0  0  0  0  0  0  0  0  0  0  0  0
   27.0200  -22.8900    0.0000 N   0  0  0  0  0  0  0  0  0  0  0  0
   26.0400  -29.8900    0.0000 O   0  0  0  0  0  0  0  0  0  0  0  0
   27.0900  -29.0500    0.0000 C   0  0  0  0  0  0  0  0  0  0  0  0
   23.3800  -20.7900    0.0000 C   0  0  0  0  0  0  0  0  0  0  0  0
   22.6800  -22.1900    0.0000 C   0  0  0  0  0  0  0  0  0  0  0  0
   22.6800  -23.4500    0.0000 C   0  0  0  0  0  0  0  0  0  0  0  0
   22.1900  -22.7500    0.0000 C   0  0  0  0  0  0  0  0  0  0  0  0
   24.5000  -22.7500    0.0000 C   0  0  0  0  0  0  0  0  0  0  0  0
   21.1400  -23.8700    0.0000 C   0  0  0  0  0  0  0  0  0  0  0  0
   23.8000  -24.4300    0.0000 C   0  0  0  0  0  0  0  0  0  0  0  0
   22.1900  -21.4200    0.0000 C   0  0  0  0  0  0  0  0  0  0  0  0
   23.3800  -23.3800    0.0000 C   0  0  0  0  0  0  0  0  0  0  0  0
   24.5000  -21.4200    0.0000 C   0  0  0  0  0  0  0  0  0  0  0  0
   23.3800  -19.3900    0.0000 C   0  0  0  0  0  0  0  0  0  0  0  0
   24.5700  -18.7600    0.0000 C   0  0  0  0  0  0  0  0  0  0  0  0
   22.1900  -18.7600    0.0000 N   0  0  0  0  0  0  0  0  0  0  0  0
   25.7600  -19.3900    0.0000 N   0  0  0  0  0  0  0  0  0  0  0  0
   24.5700  -17.3600    0.0000 O   0  0  0  0  0  0  0  0  0  0  0  0
   26.1800  -20.7200    0.0000 C   0  0  0  0  0  0  0  0  0  0  0  0
   27.5800  -20.7200    0.0000 C   0  0  0  0  0  0  0  0  0  0  0  0
   28.0000  -19.3200    0.0000 C   0  0  0  0  0  0  0  0  0  0  0  0
   26.8100  -18.6200    0.0000 C   0  0  0  0  0  0  0  0  0  0  0  0
   26.8100  -17.2200    0.0000 C   0  0  0  0  0  0  0  0  0  0  0  0
   26.8100  -15.8200    0.0000 N   0  0  0  0  0  0  0  0  0  0  0  0
   25.8300  -22.7500    0.0000 O   0  0  0  0  0  0  0  0  0  0  0  0
   26.8800  -21.9100    0.0000 C   0  0  0  0  0  0  0  0  0  0  0  0
   29.1200  -24.3600    0.0000 O   0  0  0  0  0  0  0  0  0  0  0  0
   19.3200  -17.4300    0.0000 C   0  0  0  0  0  0  0  0  0  0  0  0
   18.6200  -18.8300    0.0000 C   0  0  0  0  0  0  0  0  0  0  0  0
   18.6200  -20.0900    0.0000 C   0  0  0  0  0  0  0  0  0  0  0  0
   18.1300  -19.3900    0.0000 C   0  0  0  0  0  0  0  0  0  0  0  0
   20.4400  -19.3900    0.0000 C   0  0  0  0  0  0  0  0  0  0  0  0
   17.0800  -20.5100    0.0000 C   0  0  0  0  0  0  0  0  0  0  0  0
   19.7400  -21.0700    0.0000 C   0  0  0  0  0  0  0  0  0  0  0  0
   18.1300  -18.0600    0.0000 C   0  0  0  0  0  0  0  0  0  0  0  0
   19.3200  -20.0200    0.0000 C   0  0  0  0  0  0  0  0  0  0  0  0
   20.4400  -18.0600    0.0000 C   0  0  0  0  0  0  0  0  0  0  0  0
   19.3200  -16.0300    0.0000 C   0  0  0  0  0  0  0  0  0  0  0  0
   20.5100  -15.4000    0.0000 C   0  0  0  0  0  0  0  0  0  0  0  0
   18.1300  -15.4000    0.0000 N   0  0  0  0  0  0  0  0  0  0  0  0
   21.7000  -16.0300    0.0000 N   0  0  0  0  0  0  0  0  0  0  0  0
   20.5100  -14.0000    0.0000 O   0  0  0  0  0  0  0  0  0  0  0  0
   22.1200  -17.3600    0.0000 C   0  0  0  0  0  0  0  0  0  0  0  0
   23.5200  -17.3600    0.0000 C   0  0  0  0  0  0  0  0  0  0  0  0
   23.9400  -15.9600    0.0000 C   0  0  0  0  0  0  0  0  0  0  0  0
   22.7500  -15.2600    0.0000 C   0  0  0  0  0  0  0  0  0  0  0  0
   22.7500  -13.8600    0.0000 C   0  0  0  0  0  0  0  0  0  0  0  0
   22.7500  -12.4600    0.0000 N   0  0  0  0  0  0  0  0  0  0  0  0
   21.7700  -19.3900    0.0000 O   0  0  0  0  0  0  0  0  0  0  0  0
   22.8200  -18.5500    0.0000 C   0  0  0  0  0  0  0  0  0  0  0  0
   27.2300  -19.8100    0.0000 Cl  0  0  0  0  0  0  0  0  0  0  0  0
   24.2958  -19.6721    0.0000 C   0  0  0  0  0  0  0  0  0  0  0  0
   24.2958  -21.0723    0.0000 C   0  0  0  0  0  0  0  0  0  0  0  0
   25.5083  -21.7724    0.0000 C   0  0  0  0  0  0  0  0  0  0  0  0
   26.7210  -21.0723    0.0000 C   0  0  0  0  0  0  0  0  0  0  0  0
   26.7210  -19.6721    0.0000 C   0  0  0  0  0  0  0  0  0  0  0  0
   25.5083  -18.9720    0.0000 C   0  0  0  0  0  0  0  0  0  0  0  0
   27.9523  -18.9610    0.0000 C   0  0  0  0  0  0  0  0  0  0  0  0
   29.1576  -19.6568    0.0000 C   0  0  0  0  0  0  0  0  0  0  0  0
   29.1580  -21.0719    0.0000 C   0  0  0  0  0  0  0  0  0  0  0  0
   30.3708  -21.7717    0.0000 C   0  0  0  0  0  0  0  0  0  0  0  0
   31.5833  -21.0712    0.0000 C   0  0  0  0  0  0  0  0  0  0  0  0
   31.5828  -19.6560    0.0000 C   0  0  0  0  0  0  0  0  0  0  0  0
   30.3700  -18.9563    0.0000 C   0  0  0  0  0  0  0  0  0  0  0  0
   27.9523  -21.7834    0.0000 Cl  0  0  0  0  0  0  0  0  0  0  0  0
   32.7916  -21.7684    0.0000 O   0  0  0  0  0  0  0  0  0  0  0  0
   33.9837  -21.0796    0.0000 C   0  0  0  0  0  0  0  0  0  0  0  0
   35.1734  -21.7660    0.0000 C   0  0  0  0  0  0  0  0  0  0  0  0
   23.0832  -18.9720    0.0000 C   0  0  0  0  0  0  0  0  0  0  0  0
   23.0832  -17.5720    0.0000 O   0  0  0  0  0  0  0  0  0  0  0  0
   21.8706  -16.8719    0.0000 C   0  0  0  0  0  0  0  0  0  0  0  0
   20.6580  -17.5720    0.0000 C   0  0  0  0  0  0  0  0  0  0  0  0
   20.6580  -18.9720    0.0000 C   0  0  0  0  0  0  0  0  0  0  0  0
   21.8706  -19.6721    0.0000 C   0  0  0  0  0  0  0  0  0  0  0  0
   21.8706  -21.0721    0.0000 O   0  0  0  0  0  0  0  0  0  0  0  0
   19.4433  -16.8707    0.0000 O   0  0  0  0  0  0  0  0  0  0  0  0
   19.4433  -19.6733    0.0000 O   0  0  0  0  0  0  0  0  0  0  0  0
   21.8706  -15.4718    0.0000 C   0  0  0  0  0  0  0  0  0  0  0  0
   23.0661  -14.7814    0.0000 O   0  0  0  0  0  0  0  0  0  0  0  0
    8.1200  -20.5100    0.0000 C   0  0  0  0  0  0  0  0  0  0  0  0
    8.1200  -21.9100    0.0000 C   0  0  0  0  0  0  0  0  0  0  0  0
    9.3100  -22.6100    0.0000 C   0  0  0  0  0  0  0  0  0  0  0  0
   10.5700  -21.9100    0.0000 C   0  0  0  0  0  0  0  0  0  0  0  0
   10.5700  -20.5100    0.0000 C   0  0  0  0  0  0  0  0  0  0  0  0
    9.3100  -19.8100    0.0000 C   0  0  0  0  0  0  0  0  0  0  0  0
   11.7600  -19.8100    0.0000 C   0  0  0  0  0  0  0  0  0  0  0  0
   13.0200  -20.5100    0.0000 C   0  0  0  0  0  0  0  0  0  0  0  0
   13.0200  -21.9100    0.0000 C   0  0  0  0  0  0  0  0  0  0  0  0
   14.2100  -22.6100    0.0000 C   0  0  0  0  0  0  0  0  0  0  0  0
   15.4000  -21.9100    0.0000 C   0  0  0  0  0  0  0  0  0  0  0  0
   15.4000  -20.5100    0.0000 C   0  0  0  0  0  0  0  0  0  0  0  0
   14.2100  -19.8100    0.0000 C   0  0  0  0  0  0  0  0  0  0  0  0
   11.7600  -22.6100    0.0000 Cl  0  0  0  0  0  0  0  0  0  0  0  0
   16.5900  -22.6100    0.0000 O   0  0  0  0  0  0  0  0  0  0  0  0
   17.7800  -21.9100    0.0000 C   0  0  0  0  0  0  0  0  0  0  0  0
   18.9700  -22.6100    0.0000 C   0  0  0  0  0  0  0  0  0  0  0  0
    6.9300  -19.8100    0.0000 C   0  0  0  0  0  0  0  0  0  0  0  0
    6.9300  -18.4100    0.0000 O   0  0  0  0  0  0  0  0  0  0  0  0
    5.6700  -17.7100    0.0000 C   0  0  0  0  0  0  0  0  0  0  0  0
    4.4800  -18.4100    0.0000 C   0  0  0  0  0  0  0  0  0  0  0  0
    4.4800  -19.8100    0.0000 C   0  0  0  0  0  0  0  0  0  0  0  0
    5.6700  -20.5100    0.0000 C   0  0  0  0  0  0  0  0  0  0  0  0
    5.6700  -21.9100    0.0000 O   0  0  0  0  0  0  0  0  0  0  0  0
    3.2900  -17.7100    0.0000 O   0  0  0  0  0  0  0  0  0  0  0  0
    3.2900  -20.5100    0.0000 O   0  0  0  0  0  0  0  0  0  0  0  0
    5.6700  -16.3100    0.0000 C   0  0  0  0  0  0  0  0  0  0  0  0
    6.9300  -15.6100    0.0000 O   0  0  0  0  0  0  0  0  0  0  0  0
   15.9600  -15.8200    0.0000 C   0  0  0  0  0  0  0  0  0  0  0  0
   17.1724  -16.5200    0.0000 C   0  0  0  0  0  0  0  0  0  0  0  0
   18.3679  -15.8296    0.0000 C   0  0  0  0  0  0  0  0  0  0  0  0
   17.1725  -17.9198    0.0000 O   0  0  0  0  0  0  0  0  0  0  0  0
   19.5553  -16.5151    0.0000 O   0  0  0  0  0  0  0  0  0  0  0  0
   20.7200  -20.0200    0.0000 O   0  0  0  0  0  0  0  0  0  0  0  0
  1  2  1  0
  2  3  1  0
  8  4  1  0
  4  9  1  0
  9  5  1  0
  5 10  1  0
 10  1  1  0
  1  8  1  0
  3  6  1  0
  3  7  1  0
  4  6  1  0
  5  7  1  0
  1 11  1  0
 11 12  1  0
 11 13  1  6
 12 14  1  0
 12 15  2  0
 14 16  1  0
 16 17  1  0
 17 18  1  6
 18 19  1  0
 14 19  1  0
 19 20  1  6
 20 21  3  0
  5 22  1  0
 17 23  1  0
 16 23  1  6
 24 25  1  0
 25 26  1  0
 31 27  1  0
 27 32  1  0
 32 28  1  0
 28 33  1  0
 33 24  1  0
 24 31  1  0
 26 29  1  0
 26 30  1  0
 27 29  1  0
 28 30  1  0
 24 34  1  0
 34 35  1  0
 34 36  1  6
 35 37  1  0
 35 38  2  0
 37 39  1  0
 39 40  1  0
 40 41  1  6
 41 42  1  0
 37 42  1  0
 42 43  1  6
 43 44  3  0
 28 45  1  0
 40 46  1  0
 39 46  1  6
 48 49  1  0
 49 50  1  0
 55 51  1  0
 51 56  1  0
 56 52  1  0
 52 57  1  0
 57 48  1  0
 48 55  1  0
 50 53  1  0
 50 54  1  0
 51 53  1  0
 52 54  1  0
 48 58  1  0
 58 59  1  0
 58 60  1  6
 59 61  1  0
 59 62  2  0
 61 63  1  0
 63 64  1  0
 64 65  1  6
 65 66  1  0
 61 66  1  0
 66 67  1  6
 67 68  3  0
 52 69  1  0
 64 70  1  0
 63 70  1  6
 72 73  2  0
 73 74  1  0
 74 75  2  0
 75 76  1  0
 76 77  2  0
 72 77  1  0
 76 78  1  0
 78 79  1  0
 79 80  2  0
 80 81  1  0
 81 82  2  0
 82 83  1  0
 83 84  2  0
 79 84  1  0
 75 85  1  0
 82 86  1  0
 86 87  1  0
 87 88  1  0
 89 72  1  1
 89 90  1  0
 90 91  1  0
 91 92  1  0
 92 93  1  0
 93 94  1  0
 89 94  1  0
 94 95  1  6
 92 96  1  6
 93 97  1  1
 91 98  1  1
 98 99  1  0
100101  2  0
101102  1  0
102103  2  0
103104  1  0
104105  2  0
100105  1  0
104106  1  0
106107  1  0
107108  2  0
108109  1  0
109110  2  0
110111  1  0
111112  2  0
107112  1  0
103113  1  0
110114  1  0
114115  1  0
115116  1  0
117100  1  1
117118  1  0
118119  1  0
119120  1  0
120121  1  0
121122  1  0
117122  1  0
122123  1  6
120124  1  6
121125  1  1
119126  1  1
126127  1  0
128129  1  0
129130  1  0
129131  1  0
130132  1  0
M  END
