 
     RDKit          2D

 55 58  0  0  0  0  0  0  0  0999 V2000
   29.4485  -16.2910    0.0000 C   0  0  0  0  0  0  0  0  0  0  0  0
   28.2596  -16.9904    0.0000 C   0  0  0  0  0  0  0  0  0  0  0  0
   30.7073  -16.9904    0.0000 C   0  0  0  0  0  0  0  0  0  0  0  0
   29.4485  -14.8924    0.0000 C   0  0  0  0  0  0  0  0  0  0  0  0
   27.0708  -16.2910    0.0000 C   0  0  0  0  0  0  0  0  0  0  0  0
   28.2596  -18.3890    0.0000 O   0  0  0  0  0  0  0  0  0  0  0  0
   31.8961  -16.2910    0.0000 C   0  0  0  0  0  0  0  0  0  0  0  0
   30.7073  -14.1930    0.0000 C   0  0  0  0  0  0  0  0  0  0  0  0
   25.8120  -16.9904    0.0000 C   0  0  0  0  0  0  0  0  0  0  0  0
   27.0708  -14.8924    0.0000 C   0  0  0  0  0  0  0  0  0  0  0  0
   31.8961  -14.8924    0.0000 C   0  0  0  0  0  0  0  0  0  0  0  0
   24.6231  -16.2910    0.0000 C   0  0  0  0  0  0  0  0  0  0  0  0
   25.8120  -14.1930    0.0000 C   0  0  0  0  0  0  0  0  0  0  0  0
   33.0850  -14.1930    0.0000 O   0  0  0  0  0  0  0  0  0  0  0  0
   24.6231  -14.8924    0.0000 C   0  0  0  0  0  0  0  0  0  0  0  0
   34.3438  -14.8924    0.0000 C   0  0  0  0  0  0  0  0  0  0  0  0
   23.4343  -14.1930    0.0000 Cl  0  0  0  0  0  0  0  0  0  0  0  0
   35.5326  -14.1930    0.0000 C   0  0  0  0  0  0  0  0  0  0  0  0
   36.7215  -14.8924    0.0000 O   0  0  0  0  0  0  0  0  0  0  0  0
   35.5326  -12.7943    0.0000 O   0  0  0  0  0  0  0  0  0  0  0  0
   37.9804  -14.1930    0.0000 C   0  0  0  0  0  0  0  0  0  0  0  0
   39.1692  -14.8924    0.0000 C   0  0  0  0  0  0  0  0  0  0  0  0
   37.9804  -12.7943    0.0000 C   0  0  0  0  0  0  0  0  0  0  0  0
   33.6445  -16.1036    0.0000 C   0  0  0  0  0  0  0  0  0  0  0  0
   35.0431  -16.1036    0.0000 C   0  0  0  0  0  0  0  0  0  0  0  0
   19.2474  -18.6526    0.0000 C   0  0  0  0  0  0  0  0  0  0  0  0
   18.0208  -17.9416    0.0000 C   0  0  0  0  0  0  0  0  0  0  0  0
   19.2415  -20.0690    0.0000 C   0  0  0  0  0  0  0  0  0  0  0  0
   20.4741  -17.9476    0.0000 C   0  0  0  0  0  0  0  0  0  0  0  0
   18.0208  -16.5254    0.0000 O   0  0  0  0  0  0  0  0  0  0  0  0
   16.7882  -18.6526    0.0000 C   0  0  0  0  0  0  0  0  0  0  0  0
   20.4622  -20.7862    0.0000 C   0  0  0  0  0  0  0  0  0  0  0  0
   18.0208  -20.7801    0.0000 C   0  0  0  0  0  0  0  0  0  0  0  0
   20.4801  -16.5312    0.0000 C   0  0  0  0  0  0  0  0  0  0  0  0
   21.7008  -18.6646    0.0000 C   0  0  0  0  0  0  0  0  0  0  0  0
   16.7941  -15.8142    0.0000 C   0  0  0  0  0  0  0  0  0  0  0  0
   16.7882  -20.0690    0.0000 C   0  0  0  0  0  0  0  0  0  0  0  0
   21.6950  -20.0809    0.0000 C   0  0  0  0  0  0  0  0  0  0  0  0
   15.5674  -16.5254    0.0000 C   0  0  0  0  0  0  0  0  0  0  0  0
   16.8001  -14.3977    0.0000 O   0  0  0  0  0  0  0  0  0  0  0  0
   15.5615  -20.7801    0.0000 C   0  0  0  0  0  0  0  0  0  0  0  0
   14.3406  -15.8142    0.0000 C   0  0  0  0  0  0  0  0  0  0  0  0
   16.0356  -17.4793    0.0000 C   0  0  0  0  0  0  0  0  0  0  0  0
   14.8248  -17.5491    0.0000 C   0  0  0  0  0  0  0  0  0  0  0  0
   13.1140  -16.5194    0.0000 C   0  0  0  0  0  0  0  0  0  0  0  0
   22.9237  -17.9663    0.0000 C   0  0  0  0  0  0  0  0  0  0  0  0
   21.6950  -15.8392    0.0000 C   0  0  0  0  0  0  0  0  0  0  0  0
   21.7333  -14.4397    0.0000 C   0  0  0  0  0  0  0  0  0  0  0  0
   22.9478  -13.7290    0.0000 O   0  0  0  0  0  0  0  0  0  0  0  0
   22.9396  -12.3297    0.0000 C   0  0  0  0  0  0  0  0  0  0  0  0
   21.7236  -11.6371    0.0000 C   0  0  0  0  0  0  0  0  0  0  0  0
   20.5558  -12.3479    0.0000 C   0  0  0  0  0  0  0  0  0  0  0  0
   20.5639  -13.7472    0.0000 C   0  0  0  0  0  0  0  0  0  0  0  0
   19.3289  -11.6357    0.0000 O   0  0  0  0  0  0  0  0  0  0  0  0
   24.1539  -11.6188    0.0000 O   0  0  0  0  0  0  0  0  0  0  0  0
  1  2  1  0
  1  3  2  0
  1  4  1  0
  2  5  1  0
  2  6  2  0
  3  7  1  0
  4  8  2  0
  5  9  2  0
  5 10  1  0
  7 11  2  0
  9 12  1  0
 10 13  2  0
 11 14  1  0
 12 15  2  0
 14 16  1  0
 15 17  1  0
 16 18  1  0
 18 19  1  0
 18 20  2  0
 19 21  1  0
 21 22  1  0
 21 23  1  0
  8 11  1  0
 13 15  1  0
 16 24  1  0
 16 25  1  0
 26 27  1  0
 26 28  1  6
 26 29  1  0
 27 30  1  6
 27 31  1  0
 28 32  1  0
 28 33  2  0
 29 34  1  1
 29 35  1  0
 30 36  1  0
 31 37  1  0
 32 38  2  0
 36 39  1  0
 36 40  2  0
 37 41  1  6
 39 42  1  0
 39 43  1  0
 39 44  1  0
 42 45  1  0
 33 37  1  0
 35 38  1  0
 35 46  1  1
 34 47  1  0
 48 47  1  6
 48 49  1  0
 49 50  1  0
 50 51  1  0
 51 52  1  0
 52 53  1  0
 48 53  1  0
 52 54  1  1
 50 55  2  0
M  END
