91810695
     RDKit          2D

 64 67  0  0  1  0  0  0  0  0999 V2000
   12.3901    2.4356    0.0000 Cl  0  0  0  0  0  0  0  0  0  0  0  0
    5.5168   -4.2609    0.0000 S   0  0  0  0  0  0  0  0  0  0  0  0
    4.6735   -4.7982    0.0000 S   0  0  0  0  0  0  0  0  0  0  0  0
    3.0739   -7.8709    0.0000 S   0  0  0  0  0  0  0  0  0  0  0  0
    7.9307    3.8492    0.0000 O   0  0  0  0  0  0  0  0  0  0  0  0
    7.8289    2.3462    0.0000 O   0  0  0  0  0  0  0  0  0  0  0  0
    6.6474    6.5906    0.0000 O   0  0  0  0  0  0  0  0  0  0  0  0
    8.3794    8.5906    0.0000 O   0  0  0  0  0  0  0  0  0  0  0  0
    9.6681    8.9969    0.0000 O   0  0  0  0  0  0  0  0  0  0  0  0
   10.5550    1.0936    0.0000 O   0  0  0  0  0  0  0  0  0  0  0  0
    5.7814    8.0906    0.0000 O   0  0  0  0  0  0  0  0  0  0  0  0
    8.7596    0.8854    0.0000 O   0  0  0  0  0  0  0  0  0  0  0  0
    5.3424   -0.2647    0.0000 O   0  0  0  0  0  0  0  0  0  0  0  0
   13.5009    3.2111    0.0000 O   0  0  0  0  0  0  0  0  0  0  0  0
    2.2305   -8.4082    0.0000 O   0  0  0  0  0  0  0  0  0  0  0  0
    3.6112   -8.7143    0.0000 O   0  0  0  0  0  0  0  0  0  0  0  0
    2.5366   -7.0275    0.0000 O   0  0  0  0  0  0  0  0  0  0  0  0
    5.6477   -7.2581    0.0000 O   0  0  0  0  0  0  0  0  0  0  0  0
    7.5134    8.0906    0.0000 N   0  0  0  0  0  0  0  0  0  0  0  0
   10.8794    2.7246    0.0000 N   0  0  0  0  0  0  0  0  0  0  0  0
    7.0728   -0.1892    0.0000 N   0  0  0  0  0  0  0  0  0  0  0  0
    4.8479   -8.7944    0.0000 N   0  0  0  0  0  0  0  0  0  0  0  0
    8.9311    3.8494    0.0000 C   0  0  0  0  0  0  0  0  0  0  0  0
    8.4311    4.7155    0.0000 C   0  0  0  0  0  0  0  0  0  0  0  0
    7.5134    5.0906    0.0000 C   0  0  0  0  0  0  0  0  0  0  0  0
    8.6723    2.8835    0.0000 C   0  0  0  0  0  0  0  0  0  0  0  0
    7.5134    6.0906    0.0000 C   0  0  0  0  0  0  0  0  0  0  0  0
    9.9226    3.9800    0.0000 C   0  0  0  0  0  0  0  0  0  0  0  0
    6.5693    4.7609    0.0000 C   0  0  0  0  0  0  0  0  0  0  0  0
    8.3794    6.5906    0.0000 C   0  0  0  0  0  0  0  0  0  0  0  0
    9.1723    2.0175    0.0000 C   0  0  0  0  0  0  0  0  0  0  0  0
    8.3794    7.5906    0.0000 C   0  0  0  0  0  0  0  0  0  0  0  0
    9.2455    8.0906    0.0000 C   0  0  0  0  0  0  0  0  0  0  0  0
   10.1723    2.0175    0.0000 C   0  0  0  0  0  0  0  0  0  0  0  0
    6.6474    7.5906    0.0000 C   0  0  0  0  0  0  0  0  0  0  0  0
    7.8726    1.3472    0.0000 C   0  0  0  0  0  0  0  0  0  0  0  0
    7.0292    0.8099    0.0000 C   0  0  0  0  0  0  0  0  0  0  0  0
   10.1115    7.5906    0.0000 C   0  0  0  0  0  0  0  0  0  0  0  0
   10.8794    3.7246    0.0000 C   0  0  0  0  0  0  0  0  0  0  0  0
   11.3412    1.8376    0.0000 C   0  0  0  0  0  0  0  0  0  0  0  0
    6.1422    1.2716    0.0000 C   0  0  0  0  0  0  0  0  0  0  0  0
   11.1115    7.5906    0.0000 C   0  0  0  0  0  0  0  0  0  0  0  0
   10.6643    9.0841    0.0000 C   0  0  0  0  0  0  0  0  0  0  0  0
   11.7455    4.2246    0.0000 C   0  0  0  0  0  0  0  0  0  0  0  0
   11.7532    3.2065    0.0000 C   0  0  0  0  0  0  0  0  0  0  0  0
    7.9598   -0.6509    0.0000 C   0  0  0  0  0  0  0  0  0  0  0  0
    6.2294   -0.7265    0.0000 C   0  0  0  0  0  0  0  0  0  0  0  0
   11.6115    6.7246    0.0000 C   0  0  0  0  0  0  0  0  0  0  0  0
   11.7455    5.2246    0.0000 C   0  0  0  0  0  0  0  0  0  0  0  0
   12.6115    5.7246    0.0000 C   0  0  0  0  0  0  0  0  0  0  0  0
   12.6115    6.7246    0.0000 C   0  0  0  0  0  0  0  0  0  0  0  0
    6.2730   -1.7255    0.0000 C   0  0  0  0  0  0  0  0  0  0  0  0
   12.6349    3.7111    0.0000 C   0  0  0  0  0  0  0  0  0  0  0  0
   12.6310    4.7269    0.0000 C   0  0  0  0  0  0  0  0  0  0  0  0
    5.4296   -2.2628    0.0000 C   0  0  0  0  0  0  0  0  0  0  0  0
   13.3186    7.4317    0.0000 C   0  0  0  0  0  0  0  0  0  0  0  0
    5.4732   -3.2619    0.0000 C   0  0  0  0  0  0  0  0  0  0  0  0
    4.4742   -3.3055    0.0000 C   0  0  0  0  0  0  0  0  0  0  0  0
    6.4723   -3.2183    0.0000 C   0  0  0  0  0  0  0  0  0  0  0  0
   14.3670    3.7111    0.0000 C   0  0  0  0  0  0  0  0  0  0  0  0
    4.7171   -5.7973    0.0000 C   0  0  0  0  0  0  0  0  0  0  0  0
    3.8737   -6.3346    0.0000 C   0  0  0  0  0  0  0  0  0  0  0  0
    3.9173   -7.3336    0.0000 C   0  0  0  0  0  0  0  0  0  0  0  0
    4.8043   -7.7954    0.0000 C   0  0  0  0  0  0  0  0  0  0  0  0
  1 45  1  0
  2  3  1  0
  2 57  1  0
  3 61  1  0
  4 15  1  0
  4 16  2  0
  4 17  2  0
  4 63  1  0
  5 23  1  0
 24  5  1  6
 26  6  1  6
  6 36  1  0
 27  7  1  1
  7 35  1  0
 32  8  1  6
 33  9  1  6
  9 43  1  0
 10 34  2  0
 11 35  2  0
 12 36  2  0
 13 47  2  0
 14 53  1  0
 14 60  1  0
 18 64  2  0
 19 32  1  0
 19 35  1  0
 20 34  1  0
 20 39  1  0
 20 40  1  0
 37 21  1  0
 21 46  1  0
 21 47  1  0
 22 64  1  0
 23 24  1  0
 23 26  1  0
 23 28  1  1
 24 25  1  0
 25 27  1  0
 25 29  1  6
 26 31  1  0
 27 30  1  0
 30 32  1  0
 31 34  1  0
 32 33  1  0
 33 38  1  0
 36 37  1  0
 37 41  1  1
 38 42  2  0
 39 44  1  0
 39 45  2  0
 42 48  1  0
 44 49  2  0
 45 53  1  0
 47 52  1  0
 48 51  2  0
 49 50  1  0
 49 54  1  0
 50 51  1  0
 51 56  1  0
 52 55  1  0
 53 54  2  0
 55 57  1  0
 57 58  1  0
 57 59  1  0
 61 62  1  0
 62 63  1  0
 63 64  1  0
M  END
