121492004
     RDKit          2D

458505  0  0  1  0  0  0  0  0999 V2000
   17.9304   13.2428    0.0000 S   0  0  0  0  0  0  0  0  0  0  0  0
   22.1214   13.2109    0.0000 S   0  0  0  0  0  0  0  0  0  0  0  0
   11.9304   12.2428    0.0000 S   0  0  0  0  0  0  0  0  0  0  0  0
   55.9015  -11.2851    0.0000 S   0  0  0  0  0  0  0  0  0  0  0  0
   53.1209  -12.4210    0.0000 S   0  0  0  0  0  0  0  0  0  0  0  0
   60.0925  -12.9852    0.0000 S   0  0  0  0  0  0  0  0  0  0  0  0
   24.9020   16.3468    0.0000 S   0  0  0  0  0  0  0  0  0  0  0  0
   10.1742   14.4784    0.0000 S   0  0  0  0  0  0  0  0  0  0  0  0
   48.9298  -12.3891    0.0000 S   0  0  0  0  0  0  0  0  0  0  0  0
   62.8731  -14.1211    0.0000 S   0  0  0  0  0  0  0  0  0  0  0  0
   27.6068   13.0405    0.0000 S   0  0  0  0  0  0  0  0  0  0  0  0
   46.1492  -11.2531    0.0000 S   0  0  0  0  0  0  0  0  0  0  0  0
   28.4458   10.1564    0.0000 S   0  0  0  0  0  0  0  0  0  0  0  0
   45.1327   -8.4266    0.0000 S   0  0  0  0  0  0  0  0  0  0  0  0
   43.7909   -3.9952    0.0000 S   0  0  0  0  0  0  0  0  0  0  0  0
   31.6876    5.6015    0.0000 S   0  0  0  0  0  0  0  0  0  0  0  0
   39.5999   -2.2951    0.0000 S   0  0  0  0  0  0  0  0  0  0  0  0
   34.5157    2.5083    0.0000 S   0  0  0  0  0  0  0  0  0  0  0  0
   34.0458   -1.6564    0.0000 S   0  0  0  0  0  0  0  0  0  0  0  0
   17.9304   12.2428    0.0000 P   0  0  0  0  0  0  0  0  0  0  0  0
   21.3783   13.8800    0.0000 P   0  0  0  0  0  0  0  0  0  0  0  0
   55.9015  -10.2851    0.0000 P   0  0  0  0  0  0  0  0  0  0  0  0
   52.3777  -11.7519    0.0000 P   0  0  0  0  0  0  0  0  0  0  0  0
   12.9304   12.2428    0.0000 P   0  0  0  0  0  0  0  0  0  0  0  0
   59.3494  -13.6543    0.0000 P   0  0  0  0  0  0  0  0  0  0  0  0
   24.9020   15.3468    0.0000 P   0  0  0  0  0  0  0  0  0  0  0  0
    9.2912   14.0089    0.0000 P   0  0  0  0  0  0  0  0  0  0  0  0
   48.9298  -13.3891    0.0000 P   0  0  0  0  0  0  0  0  0  0  0  0
   62.8731  -15.1211    0.0000 P   0  0  0  0  0  0  0  0  0  0  0  0
   28.3499   13.7096    0.0000 P   0  0  0  0  0  0  0  0  0  0  0  0
   45.4060  -11.9223    0.0000 P   0  0  0  0  0  0  0  0  0  0  0  0
   29.4403   10.0518    0.0000 P   0  0  0  0  0  0  0  0  0  0  0  0
   44.1382   -8.3221    0.0000 P   0  0  0  0  0  0  0  0  0  0  0  0
   43.0478   -4.6643    0.0000 P   0  0  0  0  0  0  0  0  0  0  0  0
   32.4307    6.2706    0.0000 P   0  0  0  0  0  0  0  0  0  0  0  0
   39.5999   -1.2951    0.0000 P   0  0  0  0  0  0  0  0  0  0  0  0
   33.5212    2.6129    0.0000 P   0  0  0  0  0  0  0  0  0  0  0  0
   34.7890   -0.9873    0.0000 P   0  0  0  0  0  0  0  0  0  0  0  0
   21.0181   10.5678    0.0000 O   0  0  0  0  0  0  0  0  0  0  0  0
   15.1213   14.0599    0.0000 O   0  0  0  0  0  0  0  0  0  0  0  0
   53.1990   -8.3364    0.0000 O   0  0  0  0  0  0  0  0  0  0  0  0
   22.1996   17.2955    0.0000 O   0  0  0  0  0  0  0  0  0  0  0  0
   52.0176  -15.0641    0.0000 O   0  0  0  0  0  0  0  0  0  0  0  0
   58.9893  -10.3421    0.0000 O   0  0  0  0  0  0  0  0  0  0  0  0
   20.7091   13.1369    0.0000 O   0  0  0  0  0  0  0  0  0  0  0  0
   16.9304   12.2428    0.0000 O   0  0  0  0  0  0  0  0  0  0  0  0
   54.9015  -10.2851    0.0000 O   0  0  0  0  0  0  0  0  0  0  0  0
   22.7782   12.4646    0.0000 O   0  0  0  0  0  0  0  0  0  0  0  0
   10.9154   14.8663    0.0000 O   0  0  0  0  0  0  0  0  0  0  0  0
   51.7086  -12.4950    0.0000 O   0  0  0  0  0  0  0  0  0  0  0  0
   17.6904   14.3689    0.0000 O   0  0  0  0  0  0  0  0  0  0  0  0
   23.9020   15.3468    0.0000 O   0  0  0  0  0  0  0  0  0  0  0  0
   55.7864   -8.2976    0.0000 O   0  0  0  0  0  0  0  0  0  0  0  0
   24.7869   17.3343    0.0000 O   0  0  0  0  0  0  0  0  0  0  0  0
   58.6802  -12.9112    0.0000 O   0  0  0  0  0  0  0  0  0  0  0  0
   18.9304   12.2428    0.0000 O   0  0  0  0  0  0  0  0  0  0  0  0
   53.7777  -13.1673    0.0000 O   0  0  0  0  0  0  0  0  0  0  0  0
   12.9304   13.2428    0.0000 O   0  0  0  0  0  0  0  0  0  0  0  0
   60.1707  -17.0698    0.0000 O   0  0  0  0  0  0  0  0  0  0  0  0
   22.0474   14.6232    0.0000 O   0  0  0  0  0  0  0  0  0  0  0  0
   60.7493  -12.2389    0.0000 O   0  0  0  0  0  0  0  0  0  0  0  0
   53.0468  -11.0087    0.0000 O   0  0  0  0  0  0  0  0  0  0  0  0
   13.9304   12.2428    0.0000 O   0  0  0  0  0  0  0  0  0  0  0  0
   56.9015  -10.2851    0.0000 O   0  0  0  0  0  0  0  0  0  0  0  0
   13.4124   14.5097    0.0000 O   0  0  0  0  0  0  0  0  0  0  0  0
   61.8731  -15.1211    0.0000 O   0  0  0  0  0  0  0  0  0  0  0  0
   62.7580  -17.1086    0.0000 O   0  0  0  0  0  0  0  0  0  0  0  0
   60.0185  -14.3975    0.0000 O   0  0  0  0  0  0  0  0  0  0  0  0
   49.9298  -13.3891    0.0000 O   0  0  0  0  0  0  0  0  0  0  0  0
    6.5202   15.3089    0.0000 O   0  0  0  0  0  0  0  0  0  0  0  0
    9.7607   13.1260    0.0000 O   0  0  0  0  0  0  0  0  0  0  0  0
    8.4083   13.5395    0.0000 O   0  0  0  0  0  0  0  0  0  0  0  0
   27.9898   17.0219    0.0000 O   0  0  0  0  0  0  0  0  0  0  0  0
   25.9020   15.3468    0.0000 O   0  0  0  0  0  0  0  0  0  0  0  0
   46.2274  -15.3378    0.0000 O   0  0  0  0  0  0  0  0  0  0  0  0
   47.9298  -13.3891    0.0000 O   0  0  0  0  0  0  0  0  0  0  0  0
   17.9304   11.2428    0.0000 O   0  0  0  0  0  0  0  0  0  0  0  0
   20.6351   14.5492    0.0000 O   0  0  0  0  0  0  0  0  0  0  0  0
    6.3911   12.7245    0.0000 O   0  0  0  0  0  0  0  0  0  0  0  0
   55.9015   -9.2851    0.0000 O   0  0  0  0  0  0  0  0  0  0  0  0
   51.6346  -11.0827    0.0000 O   0  0  0  0  0  0  0  0  0  0  0  0
   27.6808   14.4528    0.0000 O   0  0  0  0  0  0  0  0  0  0  0  0
   65.9609  -15.0641    0.0000 O   0  0  0  0  0  0  0  0  0  0  0  0
   58.6062  -14.3235    0.0000 O   0  0  0  0  0  0  0  0  0  0  0  0
   63.8731  -15.1211    0.0000 O   0  0  0  0  0  0  0  0  0  0  0  0
   12.9304   11.2428    0.0000 O   0  0  0  0  0  0  0  0  0  0  0  0
   24.9020   14.3468    0.0000 O   0  0  0  0  0  0  0  0  0  0  0  0
   21.7601    8.8878    0.0000 O   0  0  0  0  0  0  0  0  0  0  0  0
   17.6624   15.6477    0.0000 O   0  0  0  0  0  0  0  0  0  0  0  0
   52.4470   -6.6608    0.0000 O   0  0  0  0  0  0  0  0  0  0  0  0
   67.7210  -13.1673    0.0000 O   0  0  0  0  0  0  0  0  0  0  0  0
   46.0752  -12.6654    0.0000 O   0  0  0  0  0  0  0  0  0  0  0  0
    8.8218   14.8919    0.0000 O   0  0  0  0  0  0  0  0  0  0  0  0
   48.9298  -14.3891    0.0000 O   0  0  0  0  0  0  0  0  0  0  0  0
   24.3963   13.6402    0.0000 O   0  0  0  0  0  0  0  0  0  0  0  0
   65.6519  -12.4950    0.0000 O   0  0  0  0  0  0  0  0  0  0  0  0
   19.5925   14.9870    0.0000 O   0  0  0  0  0  0  0  0  0  0  0  0
   42.1496  -11.2179    0.0000 O   0  0  0  0  0  0  0  0  0  0  0  0
   62.8731  -16.1211    0.0000 O   0  0  0  0  0  0  0  0  0  0  0  0
   57.7427   -7.8818    0.0000 O   0  0  0  0  0  0  0  0  0  0  0  0
    8.0829   16.6945    0.0000 O   0  0  0  0  0  0  0  0  0  0  0  0
   59.7313   -8.6621    0.0000 O   0  0  0  0  0  0  0  0  0  0  0  0
   26.7432   17.7501    0.0000 O   0  0  0  0  0  0  0  0  0  0  0  0
   31.6609   12.5358    0.0000 O   0  0  0  0  0  0  0  0  0  0  0  0
   44.7369  -11.1791    0.0000 O   0  0  0  0  0  0  0  0  0  0  0  0
   55.3957  -11.9917    0.0000 O   0  0  0  0  0  0  0  0  0  0  0  0
   29.0191   12.9665    0.0000 O   0  0  0  0  0  0  0  0  0  0  0  0
   62.3674  -13.4145    0.0000 O   0  0  0  0  0  0  0  0  0  0  0  0
   13.3395   16.6275    0.0000 O   0  0  0  0  0  0  0  0  0  0  0  0
   11.5792   13.1594    0.0000 O   0  0  0  0  0  0  0  0  0  0  0  0
   25.2053    8.5257    0.0000 O   0  0  0  0  0  0  0  0  0  0  0  0
   62.8638  -18.3833    0.0000 O   0  0  0  0  0  0  0  0  0  0  0  0
   29.5449   11.0464    0.0000 O   0  0  0  0  0  0  0  0  0  0  0  0
   15.9304   18.6477    0.0000 O   0  0  0  0  0  0  0  0  0  0  0  0
   54.4832   -3.8583    0.0000 O   0  0  0  0  0  0  0  0  0  0  0  0
   46.3587   -5.8382    0.0000 O   0  0  0  0  0  0  0  0  0  0  0  0
   64.7143  -17.5244    0.0000 O   0  0  0  0  0  0  0  0  0  0  0  0
   24.3542   21.9123    0.0000 O   0  0  0  0  0  0  0  0  0  0  0  0
   29.0931   14.3788    0.0000 O   0  0  0  0  0  0  0  0  0  0  0  0
   44.0337   -9.3166    0.0000 O   0  0  0  0  0  0  0  0  0  0  0  0
   44.2428   -7.3276    0.0000 O   0  0  0  0  0  0  0  0  0  0  0  0
   29.1743    6.9750    0.0000 O   0  0  0  0  0  0  0  0  0  0  0  0
    4.8719   16.1188    0.0000 O   0  0  0  0  0  0  0  0  0  0  0  0
   42.6877   -1.3521    0.0000 O   0  0  0  0  0  0  0  0  0  0  0  0
   35.7417    5.0968    0.0000 O   0  0  0  0  0  0  0  0  0  0  0  0
   36.8975   -3.2438    0.0000 O   0  0  0  0  0  0  0  0  0  0  0  0
   44.6629  -12.5914    0.0000 O   0  0  0  0  0  0  0  0  0  0  0  0
   31.7616    7.0138    0.0000 O   0  0  0  0  0  0  0  0  0  0  0  0
   29.3358    9.0573    0.0000 O   0  0  0  0  0  0  0  0  0  0  0  0
    4.2267   11.2030    0.0000 O   0  0  0  0  0  0  0  0  0  0  0  0
   42.3787   -3.9212    0.0000 O   0  0  0  0  0  0  0  0  0  0  0  0
   31.5325   -0.2829    0.0000 O   0  0  0  0  0  0  0  0  0  0  0  0
   43.7169   -5.4075    0.0000 O   0  0  0  0  0  0  0  0  0  0  0  0
   38.5999   -1.2951    0.0000 O   0  0  0  0  0  0  0  0  0  0  0  0
   33.6257    3.6074    0.0000 O   0  0  0  0  0  0  0  0  0  0  0  0
   34.1198   -0.2441    0.0000 O   0  0  0  0  0  0  0  0  0  0  0  0
   33.0999    5.5275    0.0000 O   0  0  0  0  0  0  0  0  0  0  0  0
   40.5999   -1.2951    0.0000 O   0  0  0  0  0  0  0  0  0  0  0  0
    2.0000   14.1818    0.0000 O   0  0  0  0  0  0  0  0  0  0  0  0
   68.7391  -13.9416    0.0000 O   0  0  0  0  0  0  0  0  0  0  0  0
   35.4581   -1.7304    0.0000 O   0  0  0  0  0  0  0  0  0  0  0  0
   33.4166    1.6184    0.0000 O   0  0  0  0  0  0  0  0  0  0  0  0
   68.3210  -10.5905    0.0000 O   0  0  0  0  0  0  0  0  0  0  0  0
   30.4349    9.9473    0.0000 O   0  0  0  0  0  0  0  0  0  0  0  0
   43.1437   -8.2176    0.0000 O   0  0  0  0  0  0  0  0  0  0  0  0
   32.8625   18.5099    0.0000 O   0  0  0  0  0  0  0  0  0  0  0  0
   33.4059   13.1085    0.0000 O   0  0  0  0  0  0  0  0  0  0  0  0
   42.3047   -5.3335    0.0000 O   0  0  0  0  0  0  0  0  0  0  0  0
   33.1739    6.9398    0.0000 O   0  0  0  0  0  0  0  0  0  0  0  0
   39.5999   -0.2951    0.0000 O   0  0  0  0  0  0  0  0  0  0  0  0
   32.5266    2.7174    0.0000 O   0  0  0  0  0  0  0  0  0  0  0  0
   35.5321   -0.3181    0.0000 O   0  0  0  0  0  0  0  0  0  0  0  0
   35.9802   10.7906    0.0000 O   0  0  0  0  0  0  0  0  0  0  0  0
   27.4259    6.4127    0.0000 O   0  0  0  0  0  0  0  0  0  0  0  0
   43.4297    0.3279    0.0000 O   0  0  0  0  0  0  0  0  0  0  0  0
   32.3585   -3.1632    0.0000 O   0  0  0  0  0  0  0  0  0  0  0  0
   50.7250   -8.4636    0.0000 O   0  0  0  0  0  0  0  0  0  0  0  0
   26.7057    3.0243    0.0000 O   0  0  0  0  0  0  0  0  0  0  0  0
   46.8748    0.6900    0.0000 O   0  0  0  0  0  0  0  0  0  0  0  0
   22.7782   10.2890    0.0000 N   0  0  0  0  0  0  0  0  0  0  0  0
   15.9304   15.6477    0.0000 N   0  0  0  0  0  0  0  0  0  0  0  0
   23.1701   18.7900    0.0000 N   0  0  0  0  0  0  0  0  0  0  0  0
   54.1696   -6.8418    0.0000 N   0  0  0  0  0  0  0  0  0  0  0  0
   53.7777  -15.3429    0.0000 N   0  0  0  0  0  0  0  0  0  0  0  0
   60.7493  -10.0633    0.0000 N   0  0  0  0  0  0  0  0  0  0  0  0
   11.6117   16.5067    0.0000 N   0  0  0  0  0  0  0  0  0  0  0  0
   61.1413  -18.5643    0.0000 N   0  0  0  0  0  0  0  0  0  0  0  0
    4.9927   14.3911    0.0000 N   0  0  0  0  0  0  0  0  0  0  0  0
   23.4827    8.7067    0.0000 N   0  0  0  0  0  0  0  0  0  0  0  0
   22.8328   20.3638    0.0000 N   0  0  0  0  0  0  0  0  0  0  0  0
   16.7964   17.1477    0.0000 N   0  0  0  0  0  0  0  0  0  0  0  0
   53.4651   -5.2596    0.0000 N   0  0  0  0  0  0  0  0  0  0  0  0
   29.7499   17.3006    0.0000 N   0  0  0  0  0  0  0  0  0  0  0  0
   54.7214  -16.6466    0.0000 N   0  0  0  0  0  0  0  0  0  0  0  0
   47.1979  -16.8323    0.0000 N   0  0  0  0  0  0  0  0  0  0  0  0
   24.9831   18.9790    0.0000 N   0  0  0  0  0  0  0  0  0  0  0  0
   55.1311  -14.1220    0.0000 N   0  0  0  0  0  0  0  0  0  0  0  0
   61.4538   -8.4810    0.0000 N   0  0  0  0  0  0  0  0  0  0  0  0
   67.7210  -15.3429    0.0000 N   0  0  0  0  0  0  0  0  0  0  0  0
   12.3710   18.0634    0.0000 N   0  0  0  0  0  0  0  0  0  0  0  0
   25.5154   20.6272    0.0000 N   0  0  0  0  0  0  0  0  0  0  0  0
   62.1593  -19.9656    0.0000 N   0  0  0  0  0  0  0  0  0  0  0  0
   56.7122  -14.8293    0.0000 N   0  0  0  0  0  0  0  0  0  0  0  0
    3.4359   15.1503    0.0000 N   0  0  0  0  0  0  0  0  0  0  0  0
   41.6884  -12.9392    0.0000 N   0  0  0  0  0  0  0  0  0  0  0  0
   30.6936   18.6044    0.0000 N   0  0  0  0  0  0  0  0  0  0  0  0
   63.1764   -8.3000    0.0000 N   0  0  0  0  0  0  0  0  0  0  0  0
   33.0457   11.4143    0.0000 N   0  0  0  0  0  0  0  0  0  0  0  0
   56.8903  -16.5521    0.0000 N   0  0  0  0  0  0  0  0  0  0  0  0
   46.8606  -18.4060    0.0000 N   0  0  0  0  0  0  0  0  0  0  0  0
   11.4024   19.4994    0.0000 N   0  0  0  0  0  0  0  0  0  0  0  0
   26.6766   19.3420    0.0000 N   0  0  0  0  0  0  0  0  0  0  0  0
   31.1034   16.0798    0.0000 N   0  0  0  0  0  0  0  0  0  0  0  0
   49.0109  -17.0212    0.0000 N   0  0  0  0  0  0  0  0  0  0  0  0
   61.4548  -21.5479    0.0000 N   0  0  0  0  0  0  0  0  0  0  0  0
   47.7436   -6.9596    0.0000 N   0  0  0  0  0  0  0  0  0  0  0  0
   69.4436  -15.5239    0.0000 N   0  0  0  0  0  0  0  0  0  0  0  0
   32.6844   16.7870    0.0000 N   0  0  0  0  0  0  0  0  0  0  0  0
   28.7131    5.2537    0.0000 N   0  0  0  0  0  0  0  0  0  0  0  0
   37.1265    3.9754    0.0000 N   0  0  0  0  0  0  0  0  0  0  0  0
   44.4478   -1.0733    0.0000 N   0  0  0  0  0  0  0  0  0  0  0  0
   37.8680   -4.7383    0.0000 N   0  0  0  0  0  0  0  0  0  0  0  0
   49.5432  -18.6694    0.0000 N   0  0  0  0  0  0  0  0  0  0  0  0
   40.2932  -13.7415    0.0000 N   0  0  0  0  0  0  0  0  0  0  0  0
   31.0713   -2.0042    0.0000 N   0  0  0  0  0  0  0  0  0  0  0  0
   34.6930   11.9496    0.0000 N   0  0  0  0  0  0  0  0  0  0  0  0
   42.7611  -14.4129    0.0000 N   0  0  0  0  0  0  0  0  0  0  0  0
   48.3820  -19.9546    0.0000 N   0  0  0  0  0  0  0  0  0  0  0  0
   32.5064   15.0641    0.0000 N   0  0  0  0  0  0  0  0  0  0  0  0
   70.1481  -17.1062    0.0000 N   0  0  0  0  0  0  0  0  0  0  0  0
   49.3440   -6.7886    0.0000 N   0  0  0  0  0  0  0  0  0  0  0  0
   47.7420   -8.7824    0.0000 N   0  0  0  0  0  0  0  0  0  0  0  0
   27.0658    4.7185    0.0000 N   0  0  0  0  0  0  0  0  0  0  0  0
   41.8924  -15.9114    0.0000 N   0  0  0  0  0  0  0  0  0  0  0  0
   38.7269    4.1464    0.0000 N   0  0  0  0  0  0  0  0  0  0  0  0
   45.1523    0.5090    0.0000 N   0  0  0  0  0  0  0  0  0  0  0  0
   37.5307   -6.3120    0.0000 N   0  0  0  0  0  0  0  0  0  0  0  0
   37.1249    2.1526    0.0000 N   0  0  0  0  0  0  0  0  0  0  0  0
   40.1604  -15.9084    0.0000 N   0  0  0  0  0  0  0  0  0  0  0  0
   49.3255   -9.4841    0.0000 N   0  0  0  0  0  0  0  0  0  0  0  0
   39.6809   -4.9272    0.0000 N   0  0  0  0  0  0  0  0  0  0  0  0
   30.7112   -3.6984    0.0000 N   0  0  0  0  0  0  0  0  0  0  0  0
   38.7085    1.4509    0.0000 N   0  0  0  0  0  0  0  0  0  0  0  0
   40.2133   -6.5754    0.0000 N   0  0  0  0  0  0  0  0  0  0  0  0
   47.9260  -10.5046    0.0000 N   0  0  0  0  0  0  0  0  0  0  0  0
   40.1080    2.4714    0.0000 N   0  0  0  0  0  0  0  0  0  0  0  0
   39.0521   -7.8606    0.0000 N   0  0  0  0  0  0  0  0  0  0  0  0
   29.0639   -4.2336    0.0000 N   0  0  0  0  0  0  0  0  0  0  0  0
   21.0181   12.1858    0.0000 C   0  0  0  0  0  0  0  0  0  0  0  0
   21.9692   11.8768    0.0000 C   0  0  0  0  0  0  0  0  0  0  0  0
   20.4304   11.3768    0.0000 C   0  0  0  0  0  0  0  0  0  0  0  0
   16.4304   13.1089    0.0000 C   0  0  0  0  0  0  0  0  0  0  0  0
   54.4015   -9.4190    0.0000 C   0  0  0  0  0  0  0  0  0  0  0  0
   16.7394   14.0599    0.0000 C   0  0  0  0  0  0  0  0  0  0  0  0
   21.9692   10.8768    0.0000 C   0  0  0  0  0  0  0  0  0  0  0  0
   54.8082   -8.5055    0.0000 C   0  0  0  0  0  0  0  0  0  0  0  0
   15.4304   13.1089    0.0000 C   0  0  0  0  0  0  0  0  0  0  0  0
   23.4020   16.2128    0.0000 C   0  0  0  0  0  0  0  0  0  0  0  0
   53.4070   -9.3145    0.0000 C   0  0  0  0  0  0  0  0  0  0  0  0
   23.8088   17.1264    0.0000 C   0  0  0  0  0  0  0  0  0  0  0  0
   22.4075   16.3174    0.0000 C   0  0  0  0  0  0  0  0  0  0  0  0
   15.9304   14.6477    0.0000 C   0  0  0  0  0  0  0  0  0  0  0  0
   52.0176  -13.4461    0.0000 C   0  0  0  0  0  0  0  0  0  0  0  0
   54.0651   -7.8364    0.0000 C   0  0  0  0  0  0  0  0  0  0  0  0
   23.0656   17.7955    0.0000 C   0  0  0  0  0  0  0  0  0  0  0  0
   52.9687  -13.7551    0.0000 C   0  0  0  0  0  0  0  0  0  0  0  0
   58.9893  -11.9601    0.0000 C   0  0  0  0  0  0  0  0  0  0  0  0
   59.9403  -11.6511    0.0000 C   0  0  0  0  0  0  0  0  0  0  0  0
   58.4015  -11.1511    0.0000 C   0  0  0  0  0  0  0  0  0  0  0  0
   51.4298  -14.2551    0.0000 C   0  0  0  0  0  0  0  0  0  0  0  0
   52.9687  -14.7551    0.0000 C   0  0  0  0  0  0  0  0  0  0  0  0
   59.9403  -10.6511    0.0000 C   0  0  0  0  0  0  0  0  0  0  0  0
   12.2876   14.0089    0.0000 C   0  0  0  0  0  0  0  0  0  0  0  0
   12.5295   14.9792    0.0000 C   0  0  0  0  0  0  0  0  0  0  0  0
   11.2900   13.9391    0.0000 C   0  0  0  0  0  0  0  0  0  0  0  0
   19.4304   11.3768    0.0000 C   0  0  0  0  0  0  0  0  0  0  0  0
   11.6814   15.5091    0.0000 C   0  0  0  0  0  0  0  0  0  0  0  0
   14.9304   12.2428    0.0000 C   0  0  0  0  0  0  0  0  0  0  0  0
   52.7378  -10.0577    0.0000 C   0  0  0  0  0  0  0  0  0  0  0  0
   21.7384   15.5742    0.0000 C   0  0  0  0  0  0  0  0  0  0  0  0
   61.3731  -15.9871    0.0000 C   0  0  0  0  0  0  0  0  0  0  0  0
   60.3786  -16.0917    0.0000 C   0  0  0  0  0  0  0  0  0  0  0  0
   61.7799  -16.9007    0.0000 C   0  0  0  0  0  0  0  0  0  0  0  0
   57.4015  -11.1511    0.0000 C   0  0  0  0  0  0  0  0  0  0  0  0
   61.0367  -17.5698    0.0000 C   0  0  0  0  0  0  0  0  0  0  0  0
   50.4298  -14.2551    0.0000 C   0  0  0  0  0  0  0  0  0  0  0  0
   10.7601   13.0911    0.0000 C   0  0  0  0  0  0  0  0  0  0  0  0
   59.7095  -15.3485    0.0000 C   0  0  0  0  0  0  0  0  0  0  0  0
    7.5602   14.0694    0.0000 C   0  0  0  0  0  0  0  0  0  0  0  0
    6.6330   13.6948    0.0000 C   0  0  0  0  0  0  0  0  0  0  0  0
    7.4905   15.0669    0.0000 C   0  0  0  0  0  0  0  0  0  0  0  0
    5.9903   14.4608    0.0000 C   0  0  0  0  0  0  0  0  0  0  0  0
   24.0315   19.2863    0.0000 C   0  0  0  0  0  0  0  0  0  0  0  0
   22.6737   13.4591    0.0000 C   0  0  0  0  0  0  0  0  0  0  0  0
   27.4020   16.2128    0.0000 C   0  0  0  0  0  0  0  0  0  0  0  0
   23.6918   10.6958    0.0000 C   0  0  0  0  0  0  0  0  0  0  0  0
   27.9898   15.4038    0.0000 C   0  0  0  0  0  0  0  0  0  0  0  0
   22.6737    9.2945    0.0000 C   0  0  0  0  0  0  0  0  0  0  0  0
   18.4336   13.6998    0.0000 C   0  0  0  0  0  0  0  0  0  0  0  0
   47.4298  -14.2551    0.0000 C   0  0  0  0  0  0  0  0  0  0  0  0
   15.0643   16.1477    0.0000 C   0  0  0  0  0  0  0  0  0  0  0  0
   56.4555   -9.0407    0.0000 C   0  0  0  0  0  0  0  0  0  0  0  0
   54.7228  -15.0349    0.0000 C   0  0  0  0  0  0  0  0  0  0  0  0
   55.0831   -6.4351    0.0000 C   0  0  0  0  0  0  0  0  0  0  0  0
   16.7964   16.1477    0.0000 C   0  0  0  0  0  0  0  0  0  0  0  0
   22.4308   19.4546    0.0000 C   0  0  0  0  0  0  0  0  0  0  0  0
   25.0959   18.2854    0.0000 C   0  0  0  0  0  0  0  0  0  0  0  0
   28.9409   15.7128    0.0000 C   0  0  0  0  0  0  0  0  0  0  0  0
   53.3606   -6.2541    0.0000 C   0  0  0  0  0  0  0  0  0  0  0  0
   46.4353  -14.3596    0.0000 C   0  0  0  0  0  0  0  0  0  0  0  0
   28.9409   16.7128    0.0000 C   0  0  0  0  0  0  0  0  0  0  0  0
   47.8365  -15.1686    0.0000 C   0  0  0  0  0  0  0  0  0  0  0  0
   53.6731  -12.1728    0.0000 C   0  0  0  0  0  0  0  0  0  0  0  0
   53.7768  -16.3370    0.0000 C   0  0  0  0  0  0  0  0  0  0  0  0
   60.6448  -13.2334    0.0000 C   0  0  0  0  0  0  0  0  0  0  0  0
   47.0934  -15.8378    0.0000 C   0  0  0  0  0  0  0  0  0  0  0  0
   26.4020   16.2128    0.0000 C   0  0  0  0  0  0  0  0  0  0  0  0
   61.6629  -10.4701    0.0000 C   0  0  0  0  0  0  0  0  0  0  0  0
   23.8219   20.2641    0.0000 C   0  0  0  0  0  0  0  0  0  0  0  0
   60.6448   -9.0688    0.0000 C   0  0  0  0  0  0  0  0  0  0  0  0
   13.2733   13.5194    0.0000 C   0  0  0  0  0  0  0  0  0  0  0  0
   24.5008   10.1080    0.0000 C   0  0  0  0  0  0  0  0  0  0  0  0
   65.3731  -14.2551    0.0000 C   0  0  0  0  0  0  0  0  0  0  0  0
   10.7129   16.9450    0.0000 C   0  0  0  0  0  0  0  0  0  0  0  0
   65.9609  -13.4461    0.0000 C   0  0  0  0  0  0  0  0  0  0  0  0
   55.3092  -15.8449    0.0000 C   0  0  0  0  0  0  0  0  0  0  0  0
   66.9120  -13.7551    0.0000 C   0  0  0  0  0  0  0  0  0  0  0  0
   15.0643   17.1477    0.0000 C   0  0  0  0  0  0  0  0  0  0  0  0
   55.1877   -5.4406    0.0000 C   0  0  0  0  0  0  0  0  0  0  0  0
    8.2565   15.7097    0.0000 C   0  0  0  0  0  0  0  0  0  0  0  0
   12.4407   17.0659    0.0000 C   0  0  0  0  0  0  0  0  0  0  0  0
   23.4827   14.0469    0.0000 C   0  0  0  0  0  0  0  0  0  0  0  0
   66.9120  -14.7551    0.0000 C   0  0  0  0  0  0  0  0  0  0  0  0
   19.3846   14.0088    0.0000 C   0  0  0  0  0  0  0  0  0  0  0  0
   57.4336   -8.8328    0.0000 C   0  0  0  0  0  0  0  0  0  0  0  0
   63.4272  -16.3655    0.0000 C   0  0  0  0  0  0  0  0  0  0  0  0
   45.7662  -13.6165    0.0000 C   0  0  0  0  0  0  0  0  0  0  0  0
   26.0741   18.4933    0.0000 C   0  0  0  0  0  0  0  0  0  0  0  0
   60.3322  -19.1521    0.0000 C   0  0  0  0  0  0  0  0  0  0  0  0
   24.3963    9.1135    0.0000 C   0  0  0  0  0  0  0  0  0  0  0  0
   64.3731  -14.2551    0.0000 C   0  0  0  0  0  0  0  0  0  0  0  0
   62.4719   -9.8823    0.0000 C   0  0  0  0  0  0  0  0  0  0  0  0
   54.4822  -11.5850    0.0000 C   0  0  0  0  0  0  0  0  0  0  0  0
   62.0548  -18.9711    0.0000 C   0  0  0  0  0  0  0  0  0  0  0  0
   15.9304   17.6477    0.0000 C   0  0  0  0  0  0  0  0  0  0  0  0
   54.3787   -4.8528    0.0000 C   0  0  0  0  0  0  0  0  0  0  0  0
   61.4538  -13.8212    0.0000 C   0  0  0  0  0  0  0  0  0  0  0  0
   10.6431   17.9426    0.0000 C   0  0  0  0  0  0  0  0  0  0  0  0
   12.5301   12.8503    0.0000 C   0  0  0  0  0  0  0  0  0  0  0  0
   24.5639   20.9345    0.0000 C   0  0  0  0  0  0  0  0  0  0  0  0
   43.7588  -11.3870    0.0000 C   0  0  0  0  0  0  0  0  0  0  0  0
   62.3674   -8.8878    0.0000 C   0  0  0  0  0  0  0  0  0  0  0  0
   25.4143   10.5147    0.0000 C   0  0  0  0  0  0  0  0  0  0  0  0
   56.3039  -15.7421    0.0000 C   0  0  0  0  0  0  0  0  0  0  0  0
   43.0156  -10.7179    0.0000 C   0  0  0  0  0  0  0  0  0  0  0  0
   60.4368  -20.1466    0.0000 C   0  0  0  0  0  0  0  0  0  0  0  0
   14.1983   17.6477    0.0000 C   0  0  0  0  0  0  0  0  0  0  0  0
   30.6663   12.4313    0.0000 C   0  0  0  0  0  0  0  0  0  0  0  0
   56.1012   -5.0339    0.0000 C   0  0  0  0  0  0  0  0  0  0  0  0
   43.3520  -12.3006    0.0000 C   0  0  0  0  0  0  0  0  0  0  0  0
    5.4299   12.4488    0.0000 C   0  0  0  0  0  0  0  0  0  0  0  0
   30.4584   11.4531    0.0000 C   0  0  0  0  0  0  0  0  0  0  0  0
    4.5543   13.4923    0.0000 C   0  0  0  0  0  0  0  0  0  0  0  0
   11.4722   18.5018    0.0000 C   0  0  0  0  0  0  0  0  0  0  0  0
   42.3575  -12.1961    0.0000 C   0  0  0  0  0  0  0  0  0  0  0  0
   64.4053  -16.5734    0.0000 C   0  0  0  0  0  0  0  0  0  0  0  0
   25.7250   19.6494    0.0000 C   0  0  0  0  0  0  0  0  0  0  0  0
    4.4335   15.2201    0.0000 C   0  0  0  0  0  0  0  0  0  0  0  0
   30.6950   16.9926    0.0000 C   0  0  0  0  0  0  0  0  0  0  0  0
   31.3244   10.9531    0.0000 C   0  0  0  0  0  0  0  0  0  0  0  0
   32.0676   11.6222    0.0000 C   0  0  0  0  0  0  0  0  0  0  0  0
   63.3854  -10.2890    0.0000 C   0  0  0  0  0  0  0  0  0  0  0  0
   48.0593  -17.3286    0.0000 C   0  0  0  0  0  0  0  0  0  0  0  0
   29.7490   18.2947    0.0000 C   0  0  0  0  0  0  0  0  0  0  0  0
   29.9972   13.1744    0.0000 C   0  0  0  0  0  0  0  0  0  0  0  0
   61.3503  -20.5534    0.0000 C   0  0  0  0  0  0  0  0  0  0  0  0
   46.4586  -17.4968    0.0000 C   0  0  0  0  0  0  0  0  0  0  0  0
   56.1259  -14.0192    0.0000 C   0  0  0  0  0  0  0  0  0  0  0  0
    9.7443   18.3810    0.0000 C   0  0  0  0  0  0  0  0  0  0  0  0
   43.1202   -9.7234    0.0000 C   0  0  0  0  0  0  0  0  0  0  0  0
    3.5568   13.4225    0.0000 C   0  0  0  0  0  0  0  0  0  0  0  0
   45.1563   -6.9209    0.0000 C   0  0  0  0  0  0  0  0  0  0  0  0
   31.2814   17.8027    0.0000 C   0  0  0  0  0  0  0  0  0  0  0  0
   45.3642   -5.9427    0.0000 C   0  0  0  0  0  0  0  0  0  0  0  0
    5.1879   11.4786    0.0000 C   0  0  0  0  0  0  0  0  0  0  0  0
   46.0223   -7.4209    0.0000 C   0  0  0  0  0  0  0  0  0  0  0  0
   47.8497  -18.3064    0.0000 C   0  0  0  0  0  0  0  0  0  0  0  0
   59.6278  -20.7344    0.0000 C   0  0  0  0  0  0  0  0  0  0  0  0
   46.7655   -6.7517    0.0000 C   0  0  0  0  0  0  0  0  0  0  0  0
   67.6165  -12.1728    0.0000 C   0  0  0  0  0  0  0  0  0  0  0  0
   67.6165  -16.3374    0.0000 C   0  0  0  0  0  0  0  0  0  0  0  0
   30.7835    6.8059    0.0000 C   0  0  0  0  0  0  0  0  0  0  0  0
   30.0403    7.4750    0.0000 C   0  0  0  0  0  0  0  0  0  0  0  0
    2.9976   14.2515    0.0000 C   0  0  0  0  0  0  0  0  0  0  0  0
   68.6345  -14.9361    0.0000 C   0  0  0  0  0  0  0  0  0  0  0  0
   30.3767    5.8923    0.0000 C   0  0  0  0  0  0  0  0  0  0  0  0
   42.6877   -2.9701    0.0000 C   0  0  0  0  0  0  0  0  0  0  0  0
   29.3822    5.9969    0.0000 C   0  0  0  0  0  0  0  0  0  0  0  0
   42.0999   -2.1611    0.0000 C   0  0  0  0  0  0  0  0  0  0  0  0
   34.5392    4.0141    0.0000 C   0  0  0  0  0  0  0  0  0  0  0  0
   38.0999   -2.1611    0.0000 C   0  0  0  0  0  0  0  0  0  0  0  0
   34.7471    4.9923    0.0000 C   0  0  0  0  0  0  0  0  0  0  0  0
   25.3266   14.3161    0.0000 C   0  0  0  0  0  0  0  0  0  0  0  0
   43.6387   -2.6611    0.0000 C   0  0  0  0  0  0  0  0  0  0  0  0
   37.1054   -2.2656    0.0000 C   0  0  0  0  0  0  0  0  0  0  0  0
   44.6951   -5.1996    0.0000 C   0  0  0  0  0  0  0  0  0  0  0  0
   35.4053    3.5141    0.0000 C   0  0  0  0  0  0  0  0  0  0  0  0
   43.6387   -1.6611    0.0000 C   0  0  0  0  0  0  0  0  0  0  0  0
   20.5436   15.2960    0.0000 C   0  0  0  0  0  0  0  0  0  0  0  0
   38.5066   -3.0747    0.0000 C   0  0  0  0  0  0  0  0  0  0  0  0
   36.1484    4.1833    0.0000 C   0  0  0  0  0  0  0  0  0  0  0  0
   58.7208   -7.6739    0.0000 C   0  0  0  0  0  0  0  0  0  0  0  0
   37.7635   -3.7438    0.0000 C   0  0  0  0  0  0  0  0  0  0  0  0
   33.1417   -0.4520    0.0000 C   0  0  0  0  0  0  0  0  0  0  0  0
   30.1448    8.4695    0.0000 C   0  0  0  0  0  0  0  0  0  0  0  0
    3.1184   12.5237    0.0000 C   0  0  0  0  0  0  0  0  0  0  0  0
   27.7214   17.9580    0.0000 C   0  0  0  0  0  0  0  0  0  0  0  0
   68.4255  -16.9252    0.0000 C   0  0  0  0  0  0  0  0  0  0  0  0
   32.2761   17.6999    0.0000 C   0  0  0  0  0  0  0  0  0  0  0  0
   32.3986    0.2171    0.0000 C   0  0  0  0  0  0  0  0  0  0  0  0
   41.8959  -13.9114    0.0000 C   0  0  0  0  0  0  0  0  0  0  0  0
   56.2047  -11.4039    0.0000 C   0  0  0  0  0  0  0  0  0  0  0  0
   32.7350   -1.3656    0.0000 C   0  0  0  0  0  0  0  0  0  0  0  0
   68.4255  -11.5850    0.0000 C   0  0  0  0  0  0  0  0  0  0  0  0
   48.5916  -18.9768    0.0000 C   0  0  0  0  0  0  0  0  0  0  0  0
   63.1764  -14.0022    0.0000 C   0  0  0  0  0  0  0  0  0  0  0  0
   31.7404   -1.2611    0.0000 C   0  0  0  0  0  0  0  0  0  0  0  0
   40.6998  -12.8344    0.0000 C   0  0  0  0  0  0  0  0  0  0  0  0
   32.0981   15.9770    0.0000 C   0  0  0  0  0  0  0  0  0  0  0  0
   41.0999   -2.1611    0.0000 C   0  0  0  0  0  0  0  0  0  0  0  0
   34.0780    5.7354    0.0000 C   0  0  0  0  0  0  0  0  0  0  0  0
   10.8360   12.4903    0.0000 C   0  0  0  0  0  0  0  0  0  0  0  0
   33.3548   10.4633    0.0000 C   0  0  0  0  0  0  0  0  0  0  0  0
   36.4363   -1.5225    0.0000 C   0  0  0  0  0  0  0  0  0  0  0  0
   69.3390  -16.5184    0.0000 C   0  0  0  0  0  0  0  0  0  0  0  0
   33.7149   12.1575    0.0000 C   0  0  0  0  0  0  0  0  0  0  0  0
   32.5031    1.2116    0.0000 C   0  0  0  0  0  0  0  0  0  0  0  0
   41.0290  -14.4099    0.0000 C   0  0  0  0  0  0  0  0  0  0  0  0
   65.6925  -17.7323    0.0000 C   0  0  0  0  0  0  0  0  0  0  0  0
   49.7528  -17.6916    0.0000 C   0  0  0  0  0  0  0  0  0  0  0  0
   48.1472   -7.8681    0.0000 C   0  0  0  0  0  0  0  0  0  0  0  0
   68.3210  -17.9197    0.0000 C   0  0  0  0  0  0  0  0  0  0  0  0
   34.3329   10.2554    0.0000 C   0  0  0  0  0  0  0  0  0  0  0  0
   48.4818   -6.2938    0.0000 C   0  0  0  0  0  0  0  0  0  0  0  0
   49.1415   -7.7619    0.0000 C   0  0  0  0  0  0  0  0  0  0  0  0
   29.0221    4.3027    0.0000 C   0  0  0  0  0  0  0  0  0  0  0  0
   35.0020   10.9985    0.0000 C   0  0  0  0  0  0  0  0  0  0  0  0
   37.5301    3.0669    0.0000 C   0  0  0  0  0  0  0  0  0  0  0  0
   27.7349    5.4616    0.0000 C   0  0  0  0  0  0  0  0  0  0  0  0
    3.9847   10.2327    0.0000 C   0  0  0  0  0  0  0  0  0  0  0  0
   38.7294   -5.2346    0.0000 C   0  0  0  0  0  0  0  0  0  0  0  0
   41.0273  -15.4099    0.0000 C   0  0  0  0  0  0  0  0  0  0  0  0
   45.3613   -1.4801    0.0000 C   0  0  0  0  0  0  0  0  0  0  0  0
   37.8647    4.6412    0.0000 C   0  0  0  0  0  0  0  0  0  0  0  0
   44.3432   -0.0788    0.0000 C   0  0  0  0  0  0  0  0  0  0  0  0
   37.1287   -5.4028    0.0000 C   0  0  0  0  0  0  0  0  0  0  0  0
   34.6419    9.3043    0.0000 C   0  0  0  0  0  0  0  0  0  0  0  0
   30.0932   -1.7963    0.0000 C   0  0  0  0  0  0  0  0  0  0  0  0
   28.3529    3.5595    0.0000 C   0  0  0  0  0  0  0  0  0  0  0  0
   38.5244    3.1731    0.0000 C   0  0  0  0  0  0  0  0  0  0  0  0
   38.5197   -6.2124    0.0000 C   0  0  0  0  0  0  0  0  0  0  0  0
   31.3803   -2.9553    0.0000 C   0  0  0  0  0  0  0  0  0  0  0  0
   42.7593  -15.4129    0.0000 C   0  0  0  0  0  0  0  0  0  0  0  0
   46.1703   -0.8923    0.0000 C   0  0  0  0  0  0  0  0  0  0  0  0
   49.7307   -8.5699    0.0000 C   0  0  0  0  0  0  0  0  0  0  0  0
   69.1300  -10.0027    0.0000 C   0  0  0  0  0  0  0  0  0  0  0  0
   27.3748    3.7674    0.0000 C   0  0  0  0  0  0  0  0  0  0  0  0
   29.4240   -2.5394    0.0000 C   0  0  0  0  0  0  0  0  0  0  0  0
   48.3312   -9.5904    0.0000 C   0  0  0  0  0  0  0  0  0  0  0  0
   46.0658    0.1022    0.0000 C   0  0  0  0  0  0  0  0  0  0  0  0
   39.1136    2.3651    0.0000 C   0  0  0  0  0  0  0  0  0  0  0  0
   28.6620    2.6085    0.0000 C   0  0  0  0  0  0  0  0  0  0  0  0
   39.2617   -6.8828    0.0000 C   0  0  0  0  0  0  0  0  0  0  0  0
   29.7330   -3.4905    0.0000 C   0  0  0  0  0  0  0  0  0  0  0  0
   47.0839   -1.2990    0.0000 C   0  0  0  0  0  0  0  0  0  0  0  0
   28.4459   -2.3315    0.0000 C   0  0  0  0  0  0  0  0  0  0  0  0
   37.7141    1.3446    0.0000 C   0  0  0  0  0  0  0  0  0  0  0  0
   40.4229   -5.5977    0.0000 C   0  0  0  0  0  0  0  0  0  0  0  0
  1 20  2  0
  2 21  2  0
  3 24  1  0
  4 22  2  0
  5 23  2  0
  6 25  2  0
  7 26  2  0
  8 27  2  0
  9 28  2  0
 10 29  2  0
 11 30  2  0
 12 31  2  0
 13 32  2  0
 14 33  2  0
 15 34  2  0
 16 35  2  0
 17 36  2  0
 18 37  2  0
 19 38  2  0
 20 46  1  0
 20 56  1  0
 20 77  1  0
 21 45  1  0
 21 60  1  0
 21 78  1  0
 22 47  1  0
 22 64  1  0
 22 80  1  0
 23 50  1  0
 23 62  1  0
 23 81  1  0
 24 58  1  0
 24 63  1  0
 24 86  2  0
 25 55  1  0
 25 68  1  0
 25 84  1  0
 26 52  1  0
 26 74  1  0
 26 87  1  0
 27 71  1  0
 27 72  1  0
 27 93  1  0
 28 69  1  0
 28 76  1  0
 28 94  1  0
 29 66  1  0
 29 85  1  0
 29 99  1  0
 30 82  1  0
 30107  1  0
 30119  1  0
 31 92  1  0
 31105  1  0
 31127  1  0
 32113  1  0
 32129  1  0
 32144  1  0
 33120  1  0
 33121  1  0
 33145  1  0
 34131  1  0
 34133  1  0
 34148  1  0
 35128  1  0
 35137  1  0
 35149  1  0
 36134  1  0
 36138  1  0
 36150  1  0
 37135  1  0
 37142  1  0
 37151  1  0
 38136  1  0
 38141  1  0
 38152  1  0
 39231  1  0
 39235  1  0
 40237  1  0
 40242  1  0
 41239  1  0
 41244  1  0
 42241  1  0
 42245  1  0
 43250  1  0
 43251  1  0
 44249  1  0
 44252  1  0
229 45  1  1
232 46  1  6
233 47  1  6
230 48  1  1
 48274  1  0
 49255  1  0
 49257  1  0
243 50  1  1
234 51  1  6
 51279  1  0
238 52  1  6
236 53  1  6
 53282  1  0
240 54  1  6
 54287  1  0
247 55  1  6
 56256  1  0
246 57  1  1
 57293  1  0
253 58  1  6
 59262  1  0
 59265  1  0
 60260  1  0
248 61  1  6
 61295  1  0
 62259  1  0
 63258  1  0
 64264  1  0
254 65  1  6
 65301  1  0
261 66  1  1
263 67  1  1
 67316  1  0
 68268  1  0
 69266  1  0
 70271  1  0
 70272  1  0
 71267  1  0
269 72  1  1
 73275  1  0
 73291  1  0
 74297  1  0
 75290  1  0
 75296  1  0
280 76  1  1
270 79  1  1
 79341  1  0
277 82  1  6
 83303  1  0
 83313  1  0
 85321  1  0
 88278  2  0
 89285  2  0
 90289  2  0
307 91  1  1
 91370  1  0
 92317  1  0
 95312  1  0
 95383  1  0
305 96  1  1
 97314  1  0
 97389  1  0
 98335  1  0
 98345  1  0
100315  1  0
100392  1  0
101310  1  0
102300  2  0
103318  1  0
103397  1  0
104338  1  0
104351  1  0
331105  1  1
106323  1  0
106402  1  0
107355  1  0
108327  1  0
108406  1  0
109311  2  0
110329  1  0
110412  1  0
111320  2  0
112324  2  0
342113  1  6
114325  2  0
115326  2  0
116364  1  0
116369  1  0
117346  1  0
117419  1  0
118330  2  0
120360  1  0
362121  1  6
122373  1  0
122378  1  0
123348  2  0
124379  1  0
124388  1  0
125382  1  0
125391  1  0
126385  1  0
126393  1  0
372128  1  1
129395  1  0
130365  1  0
130430  1  0
377131  1  6
132400  1  0
132407  1  0
133386  1  0
381134  1  1
380135  1  6
394136  1  1
137411  1  0
138410  1  0
139374  2  0
140375  2  0
141414  1  0
142417  1  0
143404  1  0
143446  1  0
146399  2  0
147416  2  0
153427  2  0
154429  2  0
155435  2  0
156442  2  0
157445  2  0
158447  2  0
159450  2  0
235160  1  6
160276  1  0
160278  1  0
242161  1  1
161281  1  0
161285  1  0
245162  1  1
162273  1  0
162286  1  0
244163  1  1
163284  1  0
163289  1  0
251164  1  6
164283  1  0
164294  1  0
252165  1  1
165298  1  0
165300  1  0
257166  1  1
166304  1  0
166311  1  0
265167  1  6
167319  1  0
167324  1  0
272168  1  6
168343  1  0
168348  1  0
169278  1  0
169320  1  0
170286  2  0
170299  1  0
171285  1  0
171325  1  0
172289  1  0
172326  1  0
291173  1  1
173349  1  0
173354  1  0
174294  2  0
174306  1  0
296175  1  6
175353  1  0
175357  1  0
176273  1  0
176347  2  0
177283  1  0
177358  2  0
178300  1  0
178332  2  0
313179  1  6
179371  1  0
179375  1  0
180311  1  0
180344  2  0
181330  1  0
181347  1  0
182324  1  0
182356  2  0
183334  2  0
183358  1  0
184348  1  0
184374  1  0
345185  1  6
185401  1  0
185408  1  0
186354  2  0
186363  1  0
187332  1  0
351188  1  1
188413  1  0
188416  1  0
189334  1  0
190357  2  0
190367  1  0
191344  1  0
192347  1  0
193349  1  0
193409  2  0
194353  1  0
194420  2  0
195356  1  0
369196  1  1
196421  1  0
196424  1  0
197375  1  0
197415  2  0
198399  1  0
198409  1  0
378199  1  6
199426  1  0
199429  1  0
391200  1  1
200428  1  0
200434  1  0
388201  1  1
201433  1  0
201435  1  0
393202  1  6
202431  1  0
202436  1  0
203405  2  0
203420  1  0
204408  2  0
204418  1  0
407205  1  6
205438  1  0
205442  1  0
206416  1  0
206427  1  0
207401  1  0
207443  2  0
208405  1  0
209409  1  0
210415  1  0
211424  2  0
211425  1  0
212421  1  0
212449  2  0
213429  1  0
213447  1  0
214432  2  0
214443  1  0
215434  2  0
215440  1  0
216435  1  0
216450  1  0
217436  2  0
217441  1  0
218428  1  0
218457  2  0
219432  1  0
220445  1  0
220449  1  0
221431  1  0
221458  2  0
222442  1  0
222454  2  0
223451  2  0
223457  1  0
224453  2  0
224458  1  0
225449  1  0
226451  1  0
227453  1  0
228454  1  0
229230  1  0
229231  1  0
230235  1  0
231256  1  6
232234  1  0
232237  1  0
233236  1  0
233239  1  0
234242  1  0
236244  1  0
237258  1  1
238240  1  0
238241  1  0
239259  1  1
240245  1  0
241260  1  1
243246  1  0
243250  1  0
246251  1  0
247248  1  0
247249  1  0
248252  1  0
249264  1  1
250266  1  6
253254  1  0
253255  1  0
254257  1  0
255267  1  1
261262  1  0
261263  1  0
262268  1  6
263265  1  0
269270  1  0
269271  1  0
270272  1  0
271310  1  6
273299  2  0
274312  1  0
275277  1  0
275297  1  1
276302  2  0
277288  1  0
279314  1  0
280290  1  0
280292  1  0
281308  2  0
282315  1  0
283306  2  0
284309  2  0
287318  1  0
288291  1  0
290317  1  6
292296  1  0
293323  1  0
295327  1  0
298322  2  0
299330  1  0
301329  1  0
302320  1  0
302333  1  0
303305  1  0
303321  1  6
304328  2  0
305307  1  0
306334  1  0
307313  1  0
308325  1  0
308337  1  0
309326  1  0
309339  1  0
316346  1  0
319336  2  0
322332  1  0
322352  1  0
328344  1  0
328359  1  0
331335  1  0
331340  1  0
335360  1  6
336356  1  0
336368  1  0
338342  1  0
338355  1  1
340345  1  0
341365  1  0
342350  1  0
343361  2  0
349363  2  0
350351  1  0
353367  2  0
361374  1  0
361396  1  0
362364  1  0
362366  1  0
363399  1  0
364386  1  1
366369  1  0
367405  1  0
370404  1  0
371398  2  0
372373  1  0
372376  1  0
373395  1  6
376378  1  0
377379  1  0
377384  1  0
379410  1  1
380382  1  0
380387  1  0
381385  1  0
381390  1  0
382411  1  1
384388  1  0
385414  1  6
387391  1  0
390393  1  0
394400  1  0
394403  1  0
398415  1  0
398422  1  0
400417  1  6
401418  2  0
403407  1  0
413423  2  0
418432  1  0
421425  2  0
423427  1  0
423437  1  0
425445  1  0
426439  2  0
428440  2  0
431441  2  0
433444  2  0
438448  2  0
439447  1  0
439452  1  0
440451  1  0
441453  1  0
444450  1  0
444455  1  0
448454  1  0
448456  1  0
M  END
