91668186
     RDKit          2D

113121  0  0  1  0  0  0  0  0999 V2000
    5.1350  -23.4192    0.0000 S   0  0  0  0  0  0  0  0  0  0  0  0
    3.6013  -16.3126    0.0000 O   0  0  0  0  0  0  0  0  0  0  0  0
    6.8951  -22.1404    0.0000 O   0  0  0  0  0  0  0  0  0  0  0  0
    4.0472  -20.0713    0.0000 O   0  0  0  0  0  0  0  0  0  0  0  0
   21.6332   22.5653    0.0000 O   0  0  0  0  0  0  0  0  0  0  0  0
    2.5369  -24.9192    0.0000 O   0  0  0  0  0  0  0  0  0  0  0  0
   23.1852   20.6533    0.0000 O   0  0  0  0  0  0  0  0  0  0  0  0
    3.4030  -26.4192    0.0000 O   0  0  0  0  0  0  0  0  0  0  0  0
   23.2326   25.1611    0.0000 O   0  0  0  0  0  0  0  0  0  0  0  0
    6.7307   -9.8467    0.0000 O   0  0  0  0  0  0  0  0  0  0  0  0
   21.2013   21.3225    0.0000 O   0  0  0  0  0  0  0  0  0  0  0  0
   22.3192   19.1533    0.0000 O   0  0  0  0  0  0  0  0  0  0  0  0
   30.8511   24.6131    0.0000 O   0  0  0  0  0  0  0  0  0  0  0  0
   21.3343   19.9796    0.0000 O   0  0  0  0  0  0  0  0  0  0  0  0
    8.4628   -7.8467    0.0000 O   0  0  0  0  0  0  0  0  0  0  0  0
    9.3288   -5.3467    0.0000 O   0  0  0  0  0  0  0  0  0  0  0  0
   19.7211   14.6533    0.0000 O   0  0  0  0  0  0  0  0  0  0  0  0
   11.0608   -3.3467    0.0000 O   0  0  0  0  0  0  0  0  0  0  0  0
   20.5871   11.1533    0.0000 O   0  0  0  0  0  0  0  0  0  0  0  0
   18.8551   10.1533    0.0000 O   0  0  0  0  0  0  0  0  0  0  0  0
   11.9269   -0.8467    0.0000 O   0  0  0  0  0  0  0  0  0  0  0  0
   18.8551    8.1533    0.0000 O   0  0  0  0  0  0  0  0  0  0  0  0
   16.2570    5.6533    0.0000 O   0  0  0  0  0  0  0  0  0  0  0  0
   13.6589    1.1533    0.0000 O   0  0  0  0  0  0  0  0  0  0  0  0
   14.5249    3.6533    0.0000 O   0  0  0  0  0  0  0  0  0  0  0  0
    5.6350  -20.8803    0.0000 N   0  0  0  0  0  0  0  0  0  0  0  0
    5.1836  -15.6081    0.0000 N   0  0  0  0  0  0  0  0  0  0  0  0
    6.3647  -13.8856    0.0000 N   0  0  0  0  0  0  0  0  0  0  0  0
    5.8647  -12.3467    0.0000 N   0  0  0  0  0  0  0  0  0  0  0  0
    5.1350  -25.4192    0.0000 N   0  0  0  0  0  0  0  0  0  0  0  0
   24.7225   24.2777    0.0000 N   0  0  0  0  0  0  0  0  0  0  0  0
    6.6737  -12.9345    0.0000 N   0  0  0  0  0  0  0  0  0  0  0  0
   27.0081   22.9736    0.0000 N   0  0  0  0  0  0  0  0  0  0  0  0
   21.4531   14.6533    0.0000 N   0  0  0  0  0  0  0  0  0  0  0  0
   19.7211   12.6533    0.0000 N   0  0  0  0  0  0  0  0  0  0  0  0
   24.9172   12.6533    0.0000 N   0  0  0  0  0  0  0  0  0  0  0  0
   17.1230    8.1533    0.0000 N   0  0  0  0  0  0  0  0  0  0  0  0
    5.8161  -19.1578    0.0000 C   0  0  0  0  0  0  0  0  0  0  0  0
    6.4038  -18.3488    0.0000 C   0  0  0  0  0  0  0  0  0  0  0  0
    4.8215  -19.0532    0.0000 C   0  0  0  0  0  0  0  0  0  0  0  0
    5.0026  -17.3307    0.0000 C   0  0  0  0  0  0  0  0  0  0  0  0
    5.9971  -17.4352    0.0000 C   0  0  0  0  0  0  0  0  0  0  0  0
    4.4148  -18.1397    0.0000 C   0  0  0  0  0  0  0  0  0  0  0  0
    6.2228  -20.0713    0.0000 C   0  0  0  0  0  0  0  0  0  0  0  0
    4.5959  -16.4171    0.0000 C   0  0  0  0  0  0  0  0  0  0  0  0
    5.9440  -21.8314    0.0000 C   0  0  0  0  0  0  0  0  0  0  0  0
    4.6350  -20.8803    0.0000 C   0  0  0  0  0  0  0  0  0  0  0  0
    5.1350  -22.4192    0.0000 C   0  0  0  0  0  0  0  0  0  0  0  0
    4.3260  -21.8314    0.0000 C   0  0  0  0  0  0  0  0  0  0  0  0
    4.7769  -14.6946    0.0000 C   0  0  0  0  0  0  0  0  0  0  0  0
    4.2690  -23.9192    0.0000 C   0  0  0  0  0  0  0  0  0  0  0  0
    5.3647  -13.8856    0.0000 C   0  0  0  0  0  0  0  0  0  0  0  0
    4.2690  -24.9192    0.0000 C   0  0  0  0  0  0  0  0  0  0  0  0
    5.0557  -12.9345    0.0000 C   0  0  0  0  0  0  0  0  0  0  0  0
    3.4030  -25.4192    0.0000 C   0  0  0  0  0  0  0  0  0  0  0  0
   23.1852   21.6533    0.0000 C   0  0  0  0  0  0  0  0  0  0  0  0
   23.7025   22.5574    0.0000 C   0  0  0  0  0  0  0  0  0  0  0  0
   25.2124   23.4060    0.0000 C   0  0  0  0  0  0  0  0  0  0  0  0
   25.3980   25.0070    0.0000 C   0  0  0  0  0  0  0  0  0  0  0  0
   26.3011   24.5914    0.0000 C   0  0  0  0  0  0  0  0  0  0  0  0
   23.2126   23.4291    0.0000 C   0  0  0  0  0  0  0  0  0  0  0  0
   26.1866   23.6039    0.0000 C   0  0  0  0  0  0  0  0  0  0  0  0
    5.8647  -11.3467    0.0000 C   0  0  0  0  0  0  0  0  0  0  0  0
   24.7024   22.5458    0.0000 C   0  0  0  0  0  0  0  0  0  0  0  0
   23.7225   24.2893    0.0000 C   0  0  0  0  0  0  0  0  0  0  0  0
   27.2450   25.0170    0.0000 C   0  0  0  0  0  0  0  0  0  0  0  0
   24.0512   21.1533    0.0000 C   0  0  0  0  0  0  0  0  0  0  0  0
   22.1713   23.4572    0.0000 C   0  0  0  0  0  0  0  0  0  0  0  0
   22.1436   21.6573    0.0000 C   0  0  0  0  0  0  0  0  0  0  0  0
   28.0809   24.4059    0.0000 C   0  0  0  0  0  0  0  0  0  0  0  0
    6.7307  -10.8467    0.0000 C   0  0  0  0  0  0  0  0  0  0  0  0
   27.3487   26.0116    0.0000 C   0  0  0  0  0  0  0  0  0  0  0  0
   27.9617   23.3773    0.0000 C   0  0  0  0  0  0  0  0  0  0  0  0
   24.0512   20.1533    0.0000 C   0  0  0  0  0  0  0  0  0  0  0  0
   29.0642   24.8492    0.0000 C   0  0  0  0  0  0  0  0  0  0  0  0
   28.2619   26.4192    0.0000 C   0  0  0  0  0  0  0  0  0  0  0  0
   28.8174   22.7208    0.0000 C   0  0  0  0  0  0  0  0  0  0  0  0
   29.9348   24.2127    0.0000 C   0  0  0  0  0  0  0  0  0  0  0  0
   22.3192   20.1533    0.0000 C   0  0  0  0  0  0  0  0  0  0  0  0
   29.8106   23.1413    0.0000 C   0  0  0  0  0  0  0  0  0  0  0  0
    7.5967   -9.3467    0.0000 C   0  0  0  0  0  0  0  0  0  0  0  0
    7.5967   -8.3467    0.0000 C   0  0  0  0  0  0  0  0  0  0  0  0
   21.4531   18.6533    0.0000 C   0  0  0  0  0  0  0  0  0  0  0  0
   21.4531   17.6533    0.0000 C   0  0  0  0  0  0  0  0  0  0  0  0
   22.3192   17.1533    0.0000 C   0  0  0  0  0  0  0  0  0  0  0  0
   20.5871   17.1533    0.0000 C   0  0  0  0  0  0  0  0  0  0  0  0
    8.4628   -6.8467    0.0000 C   0  0  0  0  0  0  0  0  0  0  0  0
   22.3192   16.1533    0.0000 C   0  0  0  0  0  0  0  0  0  0  0  0
   20.5871   16.1533    0.0000 C   0  0  0  0  0  0  0  0  0  0  0  0
   21.4531   15.6533    0.0000 C   0  0  0  0  0  0  0  0  0  0  0  0
    9.3288   -6.3467    0.0000 C   0  0  0  0  0  0  0  0  0  0  0  0
   20.5871   13.1533    0.0000 C   0  0  0  0  0  0  0  0  0  0  0  0
   21.4531   12.6533    0.0000 C   0  0  0  0  0  0  0  0  0  0  0  0
   20.5871   14.1533    0.0000 C   0  0  0  0  0  0  0  0  0  0  0  0
   22.3192   13.1533    0.0000 C   0  0  0  0  0  0  0  0  0  0  0  0
   23.1852   12.6533    0.0000 C   0  0  0  0  0  0  0  0  0  0  0  0
   10.1948   -4.8467    0.0000 C   0  0  0  0  0  0  0  0  0  0  0  0
   24.0512   13.1533    0.0000 C   0  0  0  0  0  0  0  0  0  0  0  0
   19.7211   11.6533    0.0000 C   0  0  0  0  0  0  0  0  0  0  0  0
   10.1948   -3.8467    0.0000 C   0  0  0  0  0  0  0  0  0  0  0  0
   18.8551   11.1533    0.0000 C   0  0  0  0  0  0  0  0  0  0  0  0
   11.0608   -2.3467    0.0000 C   0  0  0  0  0  0  0  0  0  0  0  0
   17.9890    9.6533    0.0000 C   0  0  0  0  0  0  0  0  0  0  0  0
   11.9269   -1.8467    0.0000 C   0  0  0  0  0  0  0  0  0  0  0  0
   17.9890    8.6533    0.0000 C   0  0  0  0  0  0  0  0  0  0  0  0
   17.1230    7.1533    0.0000 C   0  0  0  0  0  0  0  0  0  0  0  0
   16.2570    6.6533    0.0000 C   0  0  0  0  0  0  0  0  0  0  0  0
   12.7929   -0.3467    0.0000 C   0  0  0  0  0  0  0  0  0  0  0  0
   12.7929    0.6533    0.0000 C   0  0  0  0  0  0  0  0  0  0  0  0
   15.3910    5.1533    0.0000 C   0  0  0  0  0  0  0  0  0  0  0  0
   15.3910    4.1533    0.0000 C   0  0  0  0  0  0  0  0  0  0  0  0
   13.6589    2.1533    0.0000 C   0  0  0  0  0  0  0  0  0  0  0  0
   14.5249    2.6533    0.0000 C   0  0  0  0  0  0  0  0  0  0  0  0
  1 48  1  0
  1 51  1  0
  2 45  2  0
  3 46  2  0
  4 47  2  0
  5 68  1  0
  5 69  1  0
  6 55  1  0
 56  7  1  0
  7 79  1  0
  8 55  2  0
  9 65  2  0
 10 71  1  0
 10 81  1  0
 11 69  2  0
 12 79  1  0
 12 83  1  0
 13 78  1  0
 14 79  2  0
 15 82  1  0
 15 87  1  0
 16 91  1  0
 16 97  1  0
 17 94  2  0
 18100  1  0
 18102  1  0
 19 99  2  0
 20101  1  0
 20103  1  0
 21104  1  0
 21108  1  0
 22105  2  0
 23107  1  0
 23110  1  0
 24109  1  0
 24112  1  0
 25111  1  0
 25113  1  0
 26 44  1  0
 26 46  1  0
 26 47  1  0
 27 45  1  0
 27 50  1  0
 28 32  2  0
 28 52  1  0
 29 32  1  0
 29 54  1  0
 29 63  1  0
 53 30  1  6
 31 58  1  0
 31 59  1  0
 31 65  1  0
 33 62  2  0
 33 73  1  0
 34 90  1  0
 34 94  1  0
 92 35  1  0
 35 99  1  0
 36 98  1  0
 37105  1  0
 37106  1  0
 38 39  1  0
 38 40  1  0
 38 44  1  0
 39 42  1  0
 40 43  1  0
 41 42  1  0
 41 43  1  0
 41 45  1  0
 46 48  1  0
 47 49  1  0
 48 49  1  0
 50 52  1  0
 51 53  1  0
 52 54  2  0
 53 55  1  0
 56 57  1  0
 56 67  1  1
 56 69  1  0
 57 61  2  0
 57 64  1  0
 58 62  1  0
 58 64  2  0
 59 60  1  0
 60 62  1  0
 60 66  2  0
 61 65  1  0
 61 68  1  0
 63 71  1  0
 66 70  1  0
 66 72  1  0
 67 74  1  0
 70 73  2  0
 70 75  1  0
 72 76  1  0
 73 77  1  0
 75 78  2  0
 77 80  2  0
 78 80  1  0
 81 82  1  0
 83 84  1  0
 84 85  2  0
 84 86  1  0
 85 88  1  0
 86 89  2  0
 87 91  1  0
 88 90  2  0
 89 90  1  0
 92 93  1  6
 92 94  1  0
 93 95  1  0
 95 96  1  0
 96 98  1  0
 97100  1  0
 99101  1  0
102104  1  0
103105  1  0
106107  1  0
108109  1  0
110111  1  0
112113  1  0
M  END
