 
 
 
 20 21  0  0  1  0  0  0  0  0999 V2000
   15.2080  -16.3187    0.0000 C   0  0  0  0  0  0  0  0  0  0  0  0
   15.2080  -17.7258    0.0000 C   0  0  0  0  0  0  0  0  0  0  0  0
   16.4266  -18.4295    0.0000 C   0  0  0  0  0  0  0  0  0  0  0  0
   17.6454  -17.7258    0.0000 C   0  0  0  0  0  0  0  0  0  0  0  0
   17.6454  -16.3187    0.0000 B   0  0  0  0  0  0  0  0  0  0  0  0
   16.4266  -15.6151    0.0000 O   0  0  0  0  0  0  0  0  0  0  0  0
   18.8828  -15.6041    0.0000 O   0  0  0  0  0  0  0  0  0  0  0  0
   18.8828  -18.4405    0.0000 N   0  0  0  0  0  0  0  0  0  0  0  0
   20.0941  -17.7412    0.0000 C   0  0  0  0  0  0  0  0  0  0  0  0
   21.2825  -18.4276    0.0000 C   0  0  0  0  0  0  0  0  0  0  0  0
   20.0945  -16.3191    0.0000 O   0  0  0  0  0  0  0  0  0  0  0  0
   22.4827  -17.7347    0.0000 C   0  0  0  0  0  0  0  0  0  0  0  0
   13.9894  -15.6151    0.0000 C   0  0  0  0  0  0  0  0  0  0  0  0
   23.8038  -18.1272    0.0000 C   0  0  0  0  0  0  0  0  0  0  0  0
   24.5883  -16.9938    0.0000 C   0  0  0  0  0  0  0  0  0  0  0  0
   23.7530  -15.8974    0.0000 C   0  0  0  0  0  0  0  0  0  0  0  0
   22.4521  -16.3531    0.0000 S   0  0  0  0  0  0  0  0  0  0  0  0
   13.9895  -14.1942    0.0000 C   0  0  0  0  0  0  0  0  0  0  0  0
   15.1953  -13.4980    0.0000 O   0  0  0  0  0  0  0  0  0  0  0  0
   12.7733  -13.4920    0.0000 O   0  0  0  0  0  0  0  0  0  0  0  0
  1  2  1  0     0  0
  2  3  1  0     0  0
  3  4  1  0     0  0
  4  5  1  0     0  0
  5  6  1  0     0  0
  1  6  1  0     0  0
  5  7  1  0     0  0
  4  8  1  1     0  0
  8  9  1  0     0  0
  9 10  1  0     0  0
  9 11  2  0     0  0
 10 12  1  0     0  0
  1 13  1  1     0  0
 12 14  2  0     0  0
 14 15  1  0     0  0
 15 16  2  0     0  0
 16 17  1  0     0  0
 12 17  1  0     0  0
 13 18  1  0     0  0
 18 19  2  0     0  0
 18 20  1  0     0  0
M  END
