86278347
     RDKit          2D

 31 31  0  0  1  0  0  0  0  0999 V2000
    8.8334    5.4285    0.0000 O   0  0  0  0  0  0  0  0  0  0  0  0
    8.2981    3.7812    0.0000 O   0  0  0  0  0  0  0  0  0  0  0  0
    3.7320   -0.0194    0.0000 O   0  0  0  0  0  0  0  0  0  0  0  0
    5.4641   -0.0194    0.0000 O   0  0  0  0  0  0  0  0  0  0  0  0
    8.9282   -3.0194    0.0000 O   0  0  0  0  0  0  0  0  0  0  0  0
    7.1962   -3.0194    0.0000 O   0  0  0  0  0  0  0  0  0  0  0  0
    2.8660   -2.5194    0.0000 O   0  0  0  0  0  0  0  0  0  0  0  0
    9.7942   -5.5194    0.0000 O   0  0  0  0  0  0  0  0  0  0  0  0
    6.3301    4.4806    0.0000 N   0  0  0  0  0  0  0  0  0  0  0  0
    4.5981    1.4806    0.0000 N   0  0  0  0  0  0  0  0  0  0  0  0
    8.0622   -1.5194    0.0000 N   0  0  0  0  0  0  0  0  0  0  0  0
    7.1391    5.0684    0.0000 C   0  0  0  0  0  0  0  0  0  0  0  0
    5.5211    5.0684    0.0000 C   0  0  0  0  0  0  0  0  0  0  0  0
    6.8301    6.0194    0.0000 C   0  0  0  0  0  0  0  0  0  0  0  0
    5.8301    6.0194    0.0000 C   0  0  0  0  0  0  0  0  0  0  0  0
    6.3301    3.4806    0.0000 C   0  0  0  0  0  0  0  0  0  0  0  0
    5.4641    2.9806    0.0000 C   0  0  0  0  0  0  0  0  0  0  0  0
    5.4641    1.9806    0.0000 C   0  0  0  0  0  0  0  0  0  0  0  0
    6.3301    1.4806    0.0000 C   0  0  0  0  0  0  0  0  0  0  0  0
    8.0902    4.7594    0.0000 C   0  0  0  0  0  0  0  0  0  0  0  0
    6.3301    0.4806    0.0000 C   0  0  0  0  0  0  0  0  0  0  0  0
    7.1962   -0.0194    0.0000 C   0  0  0  0  0  0  0  0  0  0  0  0
    7.1962   -1.0194    0.0000 C   0  0  0  0  0  0  0  0  0  0  0  0
    4.5981    0.4806    0.0000 C   0  0  0  0  0  0  0  0  0  0  0  0
    3.7320   -1.0194    0.0000 C   0  0  0  0  0  0  0  0  0  0  0  0
    8.0622   -2.5194    0.0000 C   0  0  0  0  0  0  0  0  0  0  0  0
    2.8660   -1.5194    0.0000 C   0  0  0  0  0  0  0  0  0  0  0  0
    8.9282   -4.0194    0.0000 C   0  0  0  0  0  0  0  0  0  0  0  0
    9.7942   -4.5194    0.0000 C   0  0  0  0  0  0  0  0  0  0  0  0
    2.0000   -3.0194    0.0000 C   0  0  0  0  0  0  0  0  0  0  0  0
   10.6603   -6.0194    0.0000 C   0  0  0  0  0  0  0  0  0  0  0  0
  1 20  1  0
  2 20  2  0
  3 24  1  0
  3 25  1  0
  4 24  2  0
  5 26  1  0
  5 28  1  0
  6 26  2  0
  7 27  1  0
  7 30  1  0
  8 29  1  0
  8 31  1  0
  9 12  1  0
  9 13  1  0
  9 16  1  0
 10 18  1  0
 10 24  1  0
 11 23  1  0
 11 26  1  0
 12 14  1  0
 12 20  1  1
 13 15  1  0
 14 15  1  0
 16 17  1  0
 17 18  1  0
 18 19  1  0
 19 21  1  0
 21 22  1  0
 22 23  1  0
 25 27  1  0
 28 29  1  0
M  END
