 
     RDKit          2D

167169  0  0  0  0  0  0  0  0999 V2000
   24.1031  -22.1674    0.0000 C   0  0  0  0  0  0  0  0  0  0  0  0
   22.9701  -22.8047    0.0000 C   0  0  0  0  0  0  0  0  0  0  0  0
   21.7662  -22.1674    0.0000 O   0  0  0  0  0  0  0  0  0  0  0  0
   22.9701  -24.2210    0.0000 O   0  0  0  0  0  0  0  0  0  0  0  0
   20.4915  -22.8756    0.0000 C   0  0  0  0  0  0  0  0  0  0  0  0
   19.4128  -22.0966    0.0000 C   0  0  0  0  0  0  0  0  0  0  0  0
   20.0908  -24.2414    0.0000 C   0  0  0  0  0  0  0  0  0  0  0  0
   18.2555  -22.8879    0.0000 N   0  0  0  0  0  0  0  0  0  0  0  0
   18.7293  -24.2018    0.0000 C   0  0  0  0  0  0  0  0  0  0  0  0
   25.3216  -22.8892    0.0000 C   0  0  0  0  0  0  0  0  0  0  0  0
   25.7607  -24.2172    0.0000 C   0  0  0  0  0  0  0  0  0  0  0  0
   27.1619  -24.2138    0.0000 C   0  0  0  0  0  0  0  0  0  0  0  0
   27.5915  -22.8800    0.0000 C   0  0  0  0  0  0  0  0  0  0  0  0
   26.4559  -22.0593    0.0000 C   0  0  0  0  0  0  0  0  0  0  0  0
   24.1031  -20.7511    0.0000 C   0  0  0  0  0  0  0  0  0  0  0  0
   25.3296  -20.0429    0.0000 C   0  0  0  0  0  0  0  0  0  0  0  0
   25.3296  -18.6266    0.0000 C   0  0  0  0  0  0  0  0  0  0  0  0
   24.1031  -17.9184    0.0000 C   0  0  0  0  0  0  0  0  0  0  0  0
   22.8766  -18.6266    0.0000 C   0  0  0  0  0  0  0  0  0  0  0  0
   22.8766  -20.0429    0.0000 C   0  0  0  0  0  0  0  0  0  0  0  0
   25.1880  -21.3176    0.0000 O   0  0  0  0  0  0  0  0  0  0  0  0
   17.0289  -22.1798    0.0000 C   0  0  0  0  0  0  0  0  0  0  0  0
   17.0289  -23.5960    0.0000 C   0  0  0  0  0  0  0  0  0  0  0  0
   17.5880  -25.3541    0.0000 Br  0  0  0  0  0  0  0  0  0  0  0  0
   42.5268  -20.4767    0.0000 C   0  0  0  0  0  0  0  0  0  0  0  0
   43.7345  -21.1769    0.0000 C   0  0  0  0  0  0  0  0  0  0  0  0
   41.3191  -21.1769    0.0000 O   0  0  0  0  0  0  0  0  0  0  0  0
   42.5268  -19.0825    0.0000 O   0  0  0  0  0  0  0  0  0  0  0  0
   44.9479  -20.4767    0.0000 C   0  0  0  0  0  0  0  0  0  0  0  0
   46.1556  -21.1769    0.0000 C   0  0  0  0  0  0  0  0  0  0  0  0
   47.3633  -20.4767    0.0000 O   0  0  0  0  0  0  0  0  0  0  0  0
   46.1556  -22.5713    0.0000 O   0  0  0  0  0  0  0  0  0  0  0  0
   24.5700  -21.2100    0.0000 C   0  0  0  0  0  0  0  0  0  0  0  0
   23.3800  -21.9100    0.0000 C   0  0  0  0  0  0  0  0  0  0  0  0
   24.5700  -19.8100    0.0000 C   0  0  0  0  0  0  0  0  0  0  0  0
   25.7600  -21.9100    0.0000 C   0  0  0  0  0  0  0  0  0  0  0  0
   22.1200  -21.2100    0.0000 C   0  0  0  0  0  0  0  0  0  0  0  0
   23.3800  -19.1100    0.0000 C   0  0  0  0  0  0  0  0  0  0  0  0
   27.0200  -21.2100    0.0000 C   0  0  0  0  0  0  0  0  0  0  0  0
   25.7600  -23.3100    0.0000 O   0  0  0  0  0  0  0  0  0  0  0  0
   22.1200  -19.8100    0.0000 C   0  0  0  0  0  0  0  0  0  0  0  0
   20.9300  -21.9100    0.0000 N   0  0  0  0  0  0  0  0  0  0  0  0
   28.2100  -21.9100    0.0000 N   0  0  0  0  0  0  0  0  0  0  0  0
   20.9300  -19.1100    0.0000 O   0  0  0  0  0  0  0  0  0  0  0  0
   19.7400  -21.2100    0.0000 C   0  0  0  0  0  0  0  0  0  0  0  0
   29.4000  -21.2100    0.0000 C   0  0  0  0  0  0  0  0  0  0  0  0
   18.4800  -21.9100    0.0000 O   0  0  0  0  0  0  0  0  0  0  0  0
   30.5900  -21.9100    0.0000 C   0  0  0  0  0  0  0  0  0  0  0  0
   29.4000  -19.8100    0.0000 C   0  0  0  0  0  0  0  0  0  0  0  0
   31.8500  -21.2100    0.0000 C   0  0  0  0  0  0  0  0  0  0  0  0
   31.8500  -19.8100    0.0000 C   0  0  0  0  0  0  0  0  0  0  0  0
   33.0400  -21.9100    0.0000 C   0  0  0  0  0  0  0  0  0  0  0  0
   33.0400  -19.1100    0.0000 C   0  0  0  0  0  0  0  0  0  0  0  0
   34.2300  -21.2100    0.0000 C   0  0  0  0  0  0  0  0  0  0  0  0
   34.2300  -19.8100    0.0000 C   0  0  0  0  0  0  0  0  0  0  0  0
   35.4900  -19.0400    0.0000 O   0  0  0  0  0  0  0  0  0  0  0  0
   36.6800  -19.7400    0.0000 C   0  0  0  0  0  0  0  0  0  0  0  0
   24.5700  -21.2100    0.0000 C   0  0  0  0  0  0  0  0  0  0  0  0
   23.3800  -21.9100    0.0000 C   0  0  0  0  0  0  0  0  0  0  0  0
   22.1200  -21.2100    0.0000 C   0  0  0  0  0  0  0  0  0  0  0  0
   22.1200  -19.8100    0.0000 C   0  0  0  0  0  0  0  0  0  0  0  0
   20.9300  -19.1100    0.0000 O   0  0  0  0  0  0  0  0  0  0  0  0
   23.3800  -19.1100    0.0000 C   0  0  0  0  0  0  0  0  0  0  0  0
   24.5700  -19.8100    0.0000 C   0  0  0  0  0  0  0  0  0  0  0  0
   20.9300  -21.9100    0.0000 N   0  0  0  0  0  0  0  0  0  0  0  0
   19.7400  -21.2100    0.0000 C   0  0  0  0  0  0  0  0  0  0  0  0
   18.4800  -21.9100    0.0000 O   0  0  0  0  0  0  0  0  0  0  0  0
   25.7600  -21.9100    0.0000 C   0  0  0  0  0  0  0  0  0  0  0  0
   27.0200  -21.2100    0.0000 C   0  0  0  0  0  0  0  0  0  0  0  0
   28.2100  -21.9100    0.0000 N   0  0  0  0  0  0  0  0  0  0  0  0
   29.4000  -21.2100    0.0000 C   0  0  0  0  0  0  0  0  0  0  0  0
   30.5900  -21.9100    0.0000 C   0  0  0  0  0  0  0  0  0  0  0  0
   31.8500  -21.2100    0.0000 C   0  0  0  0  0  0  0  0  0  0  0  0
   31.8500  -19.8100    0.0000 C   0  0  0  0  0  0  0  0  0  0  0  0
   33.0400  -19.1100    0.0000 C   0  0  0  0  0  0  0  0  0  0  0  0
   34.2300  -19.8100    0.0000 C   0  0  0  0  0  0  0  0  0  0  0  0
   35.4900  -19.0400    0.0000 O   0  0  0  0  0  0  0  0  0  0  0  0
   36.6800  -19.7400    0.0000 C   0  0  0  0  0  0  0  0  0  0  0  0
   34.2300  -21.2100    0.0000 C   0  0  0  0  0  0  0  0  0  0  0  0
   33.0400  -21.9100    0.0000 C   0  0  0  0  0  0  0  0  0  0  0  0
   29.4000  -19.8100    0.0000 C   0  0  0  0  0  0  0  0  0  0  0  0
   25.7600  -23.3100    0.0000 O   0  0  0  0  0  0  0  0  0  0  0  0
   46.7600  -20.0900    0.0000 O   0  0  0  0  0  0  0  0  0  0  0  0
   38.0100  -20.8600    0.0000 C   0  0  0  0  0  0  0  0  0  0  0  0
   39.2000  -21.5600    0.0000 C   0  0  0  0  0  0  0  0  0  0  0  0
   36.7500  -21.5600    0.0000 O   0  0  0  0  0  0  0  0  0  0  0  0
   38.0100  -19.4600    0.0000 O   0  0  0  0  0  0  0  0  0  0  0  0
   40.3900  -20.8600    0.0000 C   0  0  0  0  0  0  0  0  0  0  0  0
   41.5800  -21.5600    0.0000 C   0  0  0  0  0  0  0  0  0  0  0  0
   42.8400  -20.8600    0.0000 O   0  0  0  0  0  0  0  0  0  0  0  0
   41.5800  -22.8900    0.0000 O   0  0  0  0  0  0  0  0  0  0  0  0
   20.0200  -21.5600    0.0000 C   0  0  0  0  0  0  0  0  0  0  0  0
   18.8300  -22.2600    0.0000 C   0  0  0  0  0  0  0  0  0  0  0  0
   20.0200  -20.1600    0.0000 C   0  0  0  0  0  0  0  0  0  0  0  0
   21.2100  -22.2600    0.0000 C   0  0  0  0  0  0  0  0  0  0  0  0
   17.5700  -21.5600    0.0000 C   0  0  0  0  0  0  0  0  0  0  0  0
   18.8300  -19.4600    0.0000 C   0  0  0  0  0  0  0  0  0  0  0  0
   22.4700  -21.5600    0.0000 C   0  0  0  0  0  0  0  0  0  0  0  0
   21.2100  -23.6600    0.0000 O   0  0  0  0  0  0  0  0  0  0  0  0
   17.5700  -20.1600    0.0000 C   0  0  0  0  0  0  0  0  0  0  0  0
   16.3800  -22.2600    0.0000 N   0  0  0  0  0  0  0  0  0  0  0  0
   23.6600  -22.2600    0.0000 N   0  0  0  0  0  0  0  0  0  0  0  0
   16.3800  -19.4600    0.0000 O   0  0  0  0  0  0  0  0  0  0  0  0
   15.1900  -21.5600    0.0000 C   0  0  0  0  0  0  0  0  0  0  0  0
   24.8500  -21.5600    0.0000 C   0  0  0  0  0  0  0  0  0  0  0  0
   13.9300  -22.2600    0.0000 O   0  0  0  0  0  0  0  0  0  0  0  0
   26.0400  -22.2600    0.0000 C   0  0  0  0  0  0  0  0  0  0  0  0
   24.8500  -20.1600    0.0000 C   0  0  0  0  0  0  0  0  0  0  0  0
   27.3000  -21.5600    0.0000 C   0  0  0  0  0  0  0  0  0  0  0  0
   27.3000  -20.1600    0.0000 C   0  0  0  0  0  0  0  0  0  0  0  0
   28.4900  -22.2600    0.0000 C   0  0  0  0  0  0  0  0  0  0  0  0
   28.4900  -19.4600    0.0000 C   0  0  0  0  0  0  0  0  0  0  0  0
   29.6800  -21.5600    0.0000 C   0  0  0  0  0  0  0  0  0  0  0  0
   29.6800  -20.1600    0.0000 C   0  0  0  0  0  0  0  0  0  0  0  0
   30.9400  -19.3900    0.0000 O   0  0  0  0  0  0  0  0  0  0  0  0
   32.1300  -20.0900    0.0000 C   0  0  0  0  0  0  0  0  0  0  0  0
   46.6900  -21.9100    0.0000 O   0  0  0  0  0  0  0  0  0  0  0  0
   20.0200  -21.5600    0.0000 C   0  0  0  0  0  0  0  0  0  0  0  0
   18.8300  -22.2600    0.0000 C   0  0  0  0  0  0  0  0  0  0  0  0
   17.5700  -21.5600    0.0000 C   0  0  0  0  0  0  0  0  0  0  0  0
   17.5700  -20.1600    0.0000 C   0  0  0  0  0  0  0  0  0  0  0  0
   16.3800  -19.4600    0.0000 O   0  0  0  0  0  0  0  0  0  0  0  0
   18.8300  -19.4600    0.0000 C   0  0  0  0  0  0  0  0  0  0  0  0
   20.0200  -20.1600    0.0000 C   0  0  0  0  0  0  0  0  0  0  0  0
   16.3800  -22.2600    0.0000 N   0  0  0  0  0  0  0  0  0  0  0  0
   15.1900  -21.5600    0.0000 C   0  0  0  0  0  0  0  0  0  0  0  0
   13.9300  -22.2600    0.0000 O   0  0  0  0  0  0  0  0  0  0  0  0
   21.2100  -22.2600    0.0000 C   0  0  0  0  0  0  0  0  0  0  0  0
   22.4700  -21.5600    0.0000 C   0  0  0  0  0  0  0  0  0  0  0  0
   23.6600  -22.2600    0.0000 N   0  0  0  0  0  0  0  0  0  0  0  0
   24.8500  -21.5600    0.0000 C   0  0  0  0  0  0  0  0  0  0  0  0
   26.0400  -22.2600    0.0000 C   0  0  0  0  0  0  0  0  0  0  0  0
   27.3000  -21.5600    0.0000 C   0  0  0  0  0  0  0  0  0  0  0  0
   27.3000  -20.1600    0.0000 C   0  0  0  0  0  0  0  0  0  0  0  0
   28.4900  -19.4600    0.0000 C   0  0  0  0  0  0  0  0  0  0  0  0
   29.6800  -20.1600    0.0000 C   0  0  0  0  0  0  0  0  0  0  0  0
   30.9400  -19.3900    0.0000 O   0  0  0  0  0  0  0  0  0  0  0  0
   32.1300  -20.0900    0.0000 C   0  0  0  0  0  0  0  0  0  0  0  0
   29.6800  -21.5600    0.0000 C   0  0  0  0  0  0  0  0  0  0  0  0
   28.4900  -22.2600    0.0000 C   0  0  0  0  0  0  0  0  0  0  0  0
   24.8500  -20.1600    0.0000 C   0  0  0  0  0  0  0  0  0  0  0  0
   21.2100  -23.6600    0.0000 O   0  0  0  0  0  0  0  0  0  0  0  0
   24.5700  -21.2100    0.0000 C   0  0  0  0  0  0  0  0  0  0  0  0
   23.3800  -21.9100    0.0000 C   0  0  0  0  0  0  0  0  0  0  0  0
   24.5700  -19.8100    0.0000 C   0  0  0  0  0  0  0  0  0  0  0  0
   25.7600  -21.9100    0.0000 C   0  0  0  0  0  0  0  0  0  0  0  0
   22.1200  -21.2100    0.0000 C   0  0  0  0  0  0  0  0  0  0  0  0
   23.3800  -19.1100    0.0000 C   0  0  0  0  0  0  0  0  0  0  0  0
   27.0200  -21.2100    0.0000 C   0  0  0  0  0  0  0  0  0  0  0  0
   25.7600  -23.3100    0.0000 O   0  0  0  0  0  0  0  0  0  0  0  0
   22.1200  -19.8100    0.0000 C   0  0  0  0  0  0  0  0  0  0  0  0
   20.9300  -21.9100    0.0000 N   0  0  0  0  0  0  0  0  0  0  0  0
   28.2100  -21.9100    0.0000 N   0  0  0  0  0  0  0  0  0  0  0  0
   20.9300  -19.1100    0.0000 O   0  0  0  0  0  0  0  0  0  0  0  0
   19.7400  -21.2100    0.0000 C   0  0  0  0  0  0  0  0  0  0  0  0
   29.4000  -21.2100    0.0000 C   0  0  0  0  0  0  0  0  0  0  0  0
   18.4800  -21.9100    0.0000 O   0  0  0  0  0  0  0  0  0  0  0  0
   30.5900  -21.9100    0.0000 C   0  0  0  0  0  0  0  0  0  0  0  0
   29.4000  -19.8100    0.0000 C   0  0  0  0  0  0  0  0  0  0  0  0
   31.8500  -21.2100    0.0000 C   0  0  0  0  0  0  0  0  0  0  0  0
   31.8500  -19.8100    0.0000 C   0  0  0  0  0  0  0  0  0  0  0  0
   33.0400  -21.9100    0.0000 C   0  0  0  0  0  0  0  0  0  0  0  0
   33.0400  -19.1100    0.0000 C   0  0  0  0  0  0  0  0  0  0  0  0
   34.2300  -21.2100    0.0000 C   0  0  0  0  0  0  0  0  0  0  0  0
   34.2300  -19.8100    0.0000 C   0  0  0  0  0  0  0  0  0  0  0  0
   35.4900  -19.0400    0.0000 O   0  0  0  0  0  0  0  0  0  0  0  0
   36.6800  -19.7400    0.0000 C   0  0  0  0  0  0  0  0  0  0  0  0
  1  2  1  0
  2  3  1  0
  2  4  2  0
  3  5  1  0
  5  6  1  0
  5  7  1  0
  6  8  1  0
  7  9  1  0
  8  9  1  0
  1 10  1  0
 10 11  1  0
 11 12  1  0
 12 13  1  0
 13 14  1  0
 10 14  1  0
  1 15  1  0
 15 16  2  0
 16 17  1  0
 17 18  2  0
 18 19  1  0
 19 20  2  0
 15 20  1  0
  1 21  1  0
  8 22  1  0
  8 23  1  0
 25 26  1  0
 25 27  1  0
 25 28  2  0
 26 29  2  0
 29 30  1  0
 30 31  1  0
 30 32  2  0
 33 34  2  0
 33 35  1  0
 33 36  1  0
 34 37  1  0
 35 38  2  0
 36 39  1  0
 36 40  1  0
 37 41  2  0
 37 42  1  0
 39 43  1  0
 41 44  1  0
 42 45  1  0
 43 46  1  0
 45 47  2  0
 46 48  1  0
 46 49  1  0
 48 50  1  0
 50 51  2  0
 50 52  1  0
 51 53  1  0
 52 54  2  0
 53 55  2  0
 55 56  1  0
 56 57  1  0
 38 41  1  0
 54 55  1  0
 58 59  2  0
 58 64  1  0
 58 68  1  0
 59 60  1  0
 64 63  2  0
 68 69  1  0
 68 82  1  0
 60 61  2  0
 60 65  1  0
 69 70  1  0
 61 62  1  0
 65 66  1  0
 70 71  1  0
 66 67  2  0
 71 72  1  0
 71 81  1  0
 72 73  1  0
 73 74  2  0
 73 80  1  0
 74 75  1  0
 80 79  2  0
 75 76  2  0
 76 77  1  0
 77 78  1  0
 63 61  1  0
 79 76  1  0
 84 85  1  0
 84 86  1  0
 84 87  2  0
 85 88  2  0
 88 89  1  0
 89 90  1  0
 89 91  2  0
 92 93  2  0
 92 94  1  0
 92 95  1  0
 93 96  1  0
 94 97  2  0
 95 98  1  0
 95 99  1  0
 96100  2  0
 96101  1  0
 98102  1  0
100103  1  0
101104  1  0
102105  1  0
104106  2  0
105107  1  0
105108  1  0
107109  1  0
109110  2  0
109111  1  0
110112  1  0
111113  2  0
112114  2  0
114115  1  0
115116  1  0
 97100  1  0
113114  1  0
118119  2  0
118124  1  0
118128  1  0
119120  1  0
124123  2  0
128129  1  0
128142  1  0
120121  2  0
120125  1  0
129130  1  0
121122  1  0
125126  1  0
130131  1  0
126127  2  0
131132  1  0
131141  1  0
132133  1  0
133134  2  0
133140  1  0
134135  1  0
140139  2  0
135136  2  0
136137  1  0
137138  1  0
123121  1  0
139136  1  0
143144  2  0
143145  1  0
143146  1  0
144147  1  0
145148  2  0
146149  1  0
146150  1  0
147151  2  0
147152  1  0
149153  1  0
151154  1  0
152155  1  0
153156  1  0
155157  2  0
156158  1  0
156159  1  0
158160  1  0
160161  2  0
160162  1  0
161163  1  0
162164  2  0
163165  2  0
165166  1  0
166167  1  0
148151  1  0
164165  1  0
M  CHG  2   8   1  24  -1
M  END
