121488177
     RDKit          2D

 17 16  0  0  1  0  0  0  0  0999 V2000
    3.7320   -2.0000    0.0000 O   0  0  0  0  0  0  0  0  0  0  0  0
    8.0622    3.5000    0.0000 O   0  0  0  0  0  0  0  0  0  0  0  0
    7.1962    5.0000    0.0000 O   0  0  0  0  0  0  0  0  0  0  0  0
    2.8660   -0.5000    0.0000 O   0  0  0  0  0  0  0  0  0  0  0  0
    2.0000   -4.0000    0.0000 O   0  0  0  0  0  0  0  0  0  0  0  0
    4.5981   -0.5000    0.0000 N   0  0  0  0  0  0  0  0  0  0  0  0
    5.4641    4.0000    0.0000 N   0  0  0  0  0  0  0  0  0  0  0  0
    5.4641    2.0000    0.0000 C   0  0  0  0  0  0  0  0  0  0  0  0
    6.3301    2.5000    0.0000 C   0  0  0  0  0  0  0  0  0  0  0  0
    5.4641    1.0000    0.0000 C   0  0  0  0  0  0  0  0  0  0  0  0
    6.3301    3.5000    0.0000 C   0  0  0  0  0  0  0  0  0  0  0  0
    4.5981    0.5000    0.0000 C   0  0  0  0  0  0  0  0  0  0  0  0
    7.1962    4.0000    0.0000 C   0  0  0  0  0  0  0  0  0  0  0  0
    3.7320   -1.0000    0.0000 C   0  0  0  0  0  0  0  0  0  0  0  0
    2.8660   -2.5000    0.0000 C   0  0  0  0  0  0  0  0  0  0  0  0
    2.8660   -3.5000    0.0000 C   0  0  0  0  0  0  0  0  0  0  0  0
    2.0000   -5.0000    0.0000 C   0  0  0  0  0  0  0  0  0  0  0  0
  1 14  1  0
  1 15  1  0
  2 13  1  0
  3 13  2  0
  4 14  2  0
  5 16  1  0
  5 17  1  0
  6 12  1  0
  6 14  1  0
 11  7  1  6
  8  9  1  0
  8 10  1  0
  9 11  1  0
 10 12  1  0
 11 13  1  0
 15 16  1  0
M  END
