 
     RDKit          2D

 47 47  0  0  0  0  0  0  0  0999 V2000
   34.1141  -25.5138    0.0000 Na  0  0  0  0  0 15  0  0  0  0  0  0
   26.2972  -26.1573    0.0000 C   0  0  0  0  0  0  0  0  0  0  0  0
   26.2972  -27.5565    0.0000 C   0  0  0  0  0  0  0  0  0  0  0  0
   27.5089  -28.2561    0.0000 C   0  0  0  0  0  0  0  0  0  0  0  0
   28.7206  -27.5565    0.0000 C   0  0  0  0  0  0  0  0  0  0  0  0
   28.7206  -26.1573    0.0000 C   0  0  0  0  0  0  0  0  0  0  0  0
   27.5089  -25.4578    0.0000 C   0  0  0  0  0  0  0  0  0  0  0  0
   29.9510  -25.4468    0.0000 C   0  0  0  0  0  0  0  0  0  0  0  0
   31.1554  -26.1420    0.0000 C   0  0  0  0  0  0  0  0  0  0  0  0
   32.3370  -25.4597    0.0000 O   0  0  0  0  0  0  0  0  0  0  0  0
   31.1558  -27.5561    0.0000 O   0  0  0  0  0  0  0  0  0  0  0  0
   27.5089  -24.0588    0.0000 N   0  0  0  0  0  0  0  0  0  0  0  0
   26.2804  -23.3494    0.0000 C   0  0  0  0  0  0  0  0  0  0  0  0
   26.2807  -21.9600    0.0000 C   0  0  0  0  0  0  0  0  0  0  0  0
   25.0692  -21.2602    0.0000 C   0  0  0  0  0  0  0  0  0  0  0  0
   23.8573  -21.9595    0.0000 C   0  0  0  0  0  0  0  0  0  0  0  0
   23.8570  -23.3489    0.0000 C   0  0  0  0  0  0  0  0  0  0  0  0
   25.0686  -24.0487    0.0000 C   0  0  0  0  0  0  0  0  0  0  0  0
   27.5049  -21.2534    0.0000 Cl  0  0  0  0  0  0  0  0  0  0  0  0
   25.0686  -25.4575    0.0000 Cl  0  0  0  0  0  0  0  0  0  0  0  0
   20.0900  -21.8400    0.0000 C   0  0  0  0  0  0  0  0  0  0  0  0
   20.0900  -23.2400    0.0000 C   0  0  0  0  0  0  0  0  0  0  0  0
   18.7600  -21.4200    0.0000 C   0  0  0  0  0  0  0  0  0  0  0  0
   21.3500  -20.7900    0.0000 C   0  0  0  0  0  0  0  0  0  0  0  0
   18.7600  -23.7300    0.0000 C   0  0  0  0  0  0  0  0  0  0  0  0
   21.3500  -24.2900    0.0000 C   0  0  0  0  0  0  0  0  0  0  0  0
   17.9900  -22.6100    0.0000 C   0  0  0  0  0  0  0  0  0  0  0  0
   18.3400  -20.1600    0.0000 O   0  0  0  0  0  0  0  0  0  0  0  0
   18.3400  -24.9900    0.0000 O   0  0  0  0  0  0  0  0  0  0  0  0
   22.5400  -23.5900    0.0000 C   0  0  0  0  0  0  0  0  0  0  0  0
   23.7300  -24.2900    0.0000 C   0  0  0  0  0  0  0  0  0  0  0  0
   24.9200  -23.5900    0.0000 C   0  0  0  0  0  0  0  0  0  0  0  0
   26.0400  -24.2900    0.0000 C   0  0  0  0  0  0  0  0  0  0  0  0
   27.3000  -23.5900    0.0000 C   0  0  0  0  0  0  0  0  0  0  0  0
   28.4900  -24.2900    0.0000 C   0  0  0  0  0  0  0  0  0  0  0  0
   29.6800  -23.5900    0.0000 C   0  0  0  0  0  0  0  0  0  0  0  0
   22.5400  -21.4900    0.0000 C   0  0  0  0  0  0  0  0  0  0  0  0
   23.7300  -20.7900    0.0000 C   0  0  0  0  0  0  0  0  0  0  0  0
   24.9200  -21.4900    0.0000 C   0  0  0  0  0  0  0  0  0  0  0  0
   26.0400  -20.7900    0.0000 C   0  0  0  0  0  0  0  0  0  0  0  0
   27.2300  -21.4900    0.0000 C   0  0  0  0  0  0  0  0  0  0  0  0
   28.4200  -20.7900    0.0000 C   0  0  0  0  0  0  0  0  0  0  0  0
   29.6800  -21.4900    0.0000 O   0  0  0  0  0  0  0  0  0  0  0  0
   25.8300  -22.6100    0.0000 O   0  0  0  0  0  0  0  0  0  0  0  0
   23.9400  -22.6100    0.0000 C   0  0  0  0  0  0  0  0  0  0  0  0
   30.8807  -20.7701    0.0000 C   0  0  0  0  0  0  0  0  0  0  0  0
   28.4028  -19.3901    0.0000 O   0  0  0  0  0  0  0  0  0  0  0  0
  2  3  2  0
  3  4  1  0
  4  5  2  0
  5  6  1  0
  6  7  2  0
  2  7  1  0
  6  8  1  0
  8  9  1  0
  9 10  1  0
  9 11  2  0
  7 12  1  0
 12 13  1  0
 13 14  2  0
 14 15  1  0
 15 16  2  0
 16 17  1  0
 17 18  2  0
 13 18  1  0
 14 19  1  0
 18 20  1  0
 21 22  1  0
 21 23  1  0
 21 24  1  6
 22 25  1  0
 22 26  1  1
 23 27  1  0
 23 28  2  0
 25 29  1  6
 26 30  2  0
 30 31  1  0
 31 32  1  0
 32 33  1  0
 33 34  1  0
 34 35  1  0
 35 36  1  0
 25 27  1  0
 24 37  1  0
 37 38  1  0
 38 39  1  0
 39 40  1  0
 40 41  1  0
 41 42  1  0
 42 43  1  0
 32 44  1  0
 32 45  1  0
 43 46  1  0
 42 47  2  0
M  CHG  2   1   1  10  -1
M  END
