86278362
     RDKit          2D

 22 21  0  0  1  0  0  0  0  0999 V2000
    3.7320   -3.7500    0.0000 O   0  0  0  0  0  0  0  0  0  0  0  0
    5.4641    1.2500    0.0000 O   0  0  0  0  0  0  0  0  0  0  0  0
   10.6603    5.2500    0.0000 O   0  0  0  0  0  0  0  0  0  0  0  0
    9.7942    6.7500    0.0000 O   0  0  0  0  0  0  0  0  0  0  0  0
    2.8660   -6.2500    0.0000 O   0  0  0  0  0  0  0  0  0  0  0  0
    7.1962    1.2500    0.0000 N   0  0  0  0  0  0  0  0  0  0  0  0
    8.0622    5.7500    0.0000 N   0  0  0  0  0  0  0  0  0  0  0  0
    8.0622    3.7500    0.0000 C   0  0  0  0  0  0  0  0  0  0  0  0
    8.0622    2.7500    0.0000 C   0  0  0  0  0  0  0  0  0  0  0  0
    8.9282    4.2500    0.0000 C   0  0  0  0  0  0  0  0  0  0  0  0
    5.4641   -0.7500    0.0000 C   0  0  0  0  0  0  0  0  0  0  0  0
    5.4641   -1.7500    0.0000 C   0  0  0  0  0  0  0  0  0  0  0  0
    7.1962    2.2500    0.0000 C   0  0  0  0  0  0  0  0  0  0  0  0
    6.3301   -0.2500    0.0000 C   0  0  0  0  0  0  0  0  0  0  0  0
    4.5981   -2.2500    0.0000 C   0  0  0  0  0  0  0  0  0  0  0  0
    8.9282    5.2500    0.0000 C   0  0  0  0  0  0  0  0  0  0  0  0
    6.3301    0.7500    0.0000 C   0  0  0  0  0  0  0  0  0  0  0  0
    4.5981   -3.2500    0.0000 C   0  0  0  0  0  0  0  0  0  0  0  0
    9.7942    5.7500    0.0000 C   0  0  0  0  0  0  0  0  0  0  0  0
    3.7320   -4.7500    0.0000 C   0  0  0  0  0  0  0  0  0  0  0  0
    2.8660   -5.2500    0.0000 C   0  0  0  0  0  0  0  0  0  0  0  0
    2.0000   -6.7500    0.0000 C   0  0  0  0  0  0  0  0  0  0  0  0
  1 18  1  0
  1 20  1  0
  2 17  2  0
  3 19  1  0
  4 19  2  0
  5 21  1  0
  5 22  1  0
  6 13  1  0
  6 17  1  0
 16  7  1  6
  8  9  1  0
  8 10  1  0
  9 13  1  0
 10 16  1  0
 11 12  1  0
 11 14  1  0
 12 15  1  0
 14 17  1  0
 15 18  1  0
 16 19  1  0
 20 21  1  0
M  END
