 
     RDKit          2D

164173  0  0  1  0  0  0  0  0999 V2000
   15.7761  -17.5990    0.0000 C   0  0  0  0  0  0  0  0  0  0  0  0
   15.7761  -18.9312    0.0000 C   0  0  0  0  0  0  0  0  0  0  0  0
   16.8979  -19.5622    0.0000 C   0  0  0  0  0  0  0  0  0  0  0  0
   18.0899  -18.9312    0.0000 C   0  0  0  0  0  0  0  0  0  0  0  0
   18.0899  -17.5990    0.0000 C   0  0  0  0  0  0  0  0  0  0  0  0
   16.8979  -16.8978    0.0000 C   0  0  0  0  0  0  0  0  0  0  0  0
   19.2818  -16.8978    0.0000 C   0  0  0  0  0  0  0  0  0  0  0  0
   20.4738  -17.5990    0.0000 C   0  0  0  0  0  0  0  0  0  0  0  0
   20.4738  -18.9312    0.0000 C   0  0  0  0  0  0  0  0  0  0  0  0
   21.5957  -19.5622    0.0000 C   0  0  0  0  0  0  0  0  0  0  0  0
   22.7175  -18.9312    0.0000 C   0  0  0  0  0  0  0  0  0  0  0  0
   22.7175  -17.5990    0.0000 C   0  0  0  0  0  0  0  0  0  0  0  0
   21.5957  -16.8978    0.0000 C   0  0  0  0  0  0  0  0  0  0  0  0
   19.2818  -19.5622    0.0000 Cl  0  0  0  0  0  0  0  0  0  0  0  0
   23.9095  -19.5622    0.0000 O   0  0  0  0  0  0  0  0  0  0  0  0
   25.0313  -18.9312    0.0000 C   0  0  0  0  0  0  0  0  0  0  0  0
   26.1532  -19.5622    0.0000 C   0  0  0  0  0  0  0  0  0  0  0  0
   14.5841  -16.8978    0.0000 C   0  0  0  0  0  0  0  0  0  0  0  0
   14.5841  -15.5656    0.0000 O   0  0  0  0  0  0  0  0  0  0  0  0
   13.3922  -14.8645    0.0000 C   0  0  0  0  0  0  0  0  0  0  0  0
   12.2703  -15.5656    0.0000 C   0  0  0  0  0  0  0  0  0  0  0  0
   12.2703  -16.8978    0.0000 C   0  0  0  0  0  0  0  0  0  0  0  0
   13.3922  -17.5990    0.0000 C   0  0  0  0  0  0  0  0  0  0  0  0
   13.3922  -18.9312    0.0000 O   0  0  0  0  0  0  0  0  0  0  0  0
   11.0783  -14.8645    0.0000 O   0  0  0  0  0  0  0  0  0  0  0  0
   11.0783  -17.5990    0.0000 O   0  0  0  0  0  0  0  0  0  0  0  0
   13.3922  -13.5323    0.0000 C   0  0  0  0  0  0  0  0  0  0  0  0
   14.5841  -12.8311    0.0000 O   0  0  0  0  0  0  0  0  0  0  0  0
   14.8646  -14.0231    0.0000 C   0  0  0  0  0  0  0  0  0  0  0  0
   16.2669  -15.9162    0.0000 O   0  0  0  0  0  0  0  0  0  0  0  0
   29.7178  -15.4386    0.0000 C   0  0  0  0  0  0  0  0  0  0  0  0
   30.1370  -16.7660    0.0000 C   0  0  0  0  0  0  0  0  0  0  0  0
   31.5343  -16.7659    0.0000 C   0  0  0  0  0  0  0  0  0  0  0  0
   32.0234  -15.5084    0.0000 C   0  0  0  0  0  0  0  0  0  0  0  0
   30.9055  -14.6700    0.0000 N   0  0  0  0  0  0  0  0  0  0  0  0
   33.2111  -14.7399    0.0000 C   0  0  0  0  0  0  0  0  0  0  0  0
   34.3988  -15.4386    0.0000 O   0  0  0  0  0  0  0  0  0  0  0  0
   33.2111  -13.3426    0.0000 O   0  0  0  0  0  0  0  0  0  0  0  0
   28.3903  -15.0194    0.0000 O   0  0  0  0  0  0  0  0  0  0  0  0
   17.9900  -18.1300    0.0000 C   0  0  0  0  0  0  0  0  0  0  0  0
   17.9900  -19.5300    0.0000 C   0  0  0  0  0  0  0  0  0  0  0  0
   19.1800  -20.2300    0.0000 C   0  0  0  0  0  0  0  0  0  0  0  0
   20.4400  -19.5300    0.0000 C   0  0  0  0  0  0  0  0  0  0  0  0
   20.4400  -18.1300    0.0000 C   0  0  0  0  0  0  0  0  0  0  0  0
   19.1800  -17.4300    0.0000 C   0  0  0  0  0  0  0  0  0  0  0  0
   21.6300  -17.4300    0.0000 C   0  0  0  0  0  0  0  0  0  0  0  0
   22.8900  -18.1300    0.0000 C   0  0  0  0  0  0  0  0  0  0  0  0
   22.8900  -19.5300    0.0000 C   0  0  0  0  0  0  0  0  0  0  0  0
   24.0800  -20.2300    0.0000 C   0  0  0  0  0  0  0  0  0  0  0  0
   25.2700  -19.5300    0.0000 C   0  0  0  0  0  0  0  0  0  0  0  0
   25.2700  -18.1300    0.0000 C   0  0  0  0  0  0  0  0  0  0  0  0
   24.0800  -17.4300    0.0000 C   0  0  0  0  0  0  0  0  0  0  0  0
   21.6300  -20.2300    0.0000 Cl  0  0  0  0  0  0  0  0  0  0  0  0
   26.4600  -20.2300    0.0000 O   0  0  0  0  0  0  0  0  0  0  0  0
   27.6500  -19.5300    0.0000 C   0  0  0  0  0  0  0  0  0  0  0  0
   28.8400  -20.2300    0.0000 C   0  0  0  0  0  0  0  0  0  0  0  0
   16.8000  -17.4300    0.0000 C   0  0  0  0  0  0  0  0  0  0  0  0
   16.8000  -16.0300    0.0000 O   0  0  0  0  0  0  0  0  0  0  0  0
   15.5400  -15.3300    0.0000 C   0  0  0  0  0  0  0  0  0  0  0  0
   14.3500  -16.0300    0.0000 C   0  0  0  0  0  0  0  0  0  0  0  0
   14.3500  -17.4300    0.0000 C   0  0  0  0  0  0  0  0  0  0  0  0
   15.5400  -18.1300    0.0000 C   0  0  0  0  0  0  0  0  0  0  0  0
   15.5400  -19.5300    0.0000 O   0  0  0  0  0  0  0  0  0  0  0  0
   13.1600  -15.3300    0.0000 O   0  0  0  0  0  0  0  0  0  0  0  0
   13.1600  -18.1300    0.0000 O   0  0  0  0  0  0  0  0  0  0  0  0
   15.5400  -13.9300    0.0000 C   0  0  0  0  0  0  0  0  0  0  0  0
   16.8000  -13.2300    0.0000 O   0  0  0  0  0  0  0  0  0  0  0  0
   17.0324  -14.4200    0.0000 C   0  0  0  0  0  0  0  0  0  0  0  0
   18.5024  -16.3800    0.0000 O   0  0  0  0  0  0  0  0  0  0  0  0
    8.1200  -12.2500    0.0000 C   0  0  0  0  0  0  0  0  0  0  0  0
    8.1200  -13.6500    0.0000 C   0  0  0  0  0  0  0  0  0  0  0  0
    9.3324  -14.3500    0.0000 C   0  0  0  0  0  0  0  0  0  0  0  0
   10.5449  -13.6500    0.0000 C   0  0  0  0  0  0  0  0  0  0  0  0
   10.5449  -12.2500    0.0000 C   0  0  0  0  0  0  0  0  0  0  0  0
    9.3324  -11.5500    0.0000 C   0  0  0  0  0  0  0  0  0  0  0  0
    9.3324  -10.1502    0.0000 F   0  0  0  0  0  0  0  0  0  0  0  0
    9.3324  -15.7498    0.0000 F   0  0  0  0  0  0  0  0  0  0  0  0
    6.9076  -11.5500    0.0000 F   0  0  0  0  0  0  0  0  0  0  0  0
   11.7760  -14.3610    0.0000 C   0  0  0  0  0  0  0  0  0  0  0  0
   12.9812  -13.6653    0.0000 C   0  0  0  0  0  0  0  0  0  0  0  0
   14.1635  -14.3481    0.0000 C   0  0  0  0  0  0  0  0  0  0  0  0
   15.3575  -13.6588    0.0000 C   0  0  0  0  0  0  0  0  0  0  0  0
   16.5454  -14.3448    0.0000 N   0  0  0  0  0  0  0  0  0  0  0  0
   15.3577  -12.2503    0.0000 O   0  0  0  0  0  0  0  0  0  0  0  0
   12.9816  -12.2504    0.0000 N   0  0  0  0  0  0  0  0  0  0  0  0
   16.5454  -15.7498    0.0000 C   0  0  0  0  0  0  0  0  0  0  0  0
   17.7578  -16.4498    0.0000 C   0  0  0  0  0  0  0  0  0  0  0  0
   18.9703  -15.7498    0.0000 N   0  0  0  0  0  0  0  0  0  0  0  0
   18.9703  -14.3448    0.0000 C   0  0  0  0  0  0  0  0  0  0  0  0
   17.7579  -13.6448    0.0000 C   0  0  0  0  0  0  0  0  0  0  0  0
   20.3065  -16.1840    0.0000 C   0  0  0  0  0  0  0  0  0  0  0  0
   21.1324  -15.0474    0.0000 N   0  0  0  0  0  0  0  0  0  0  0  0
   20.3065  -13.9107    0.0000 N   0  0  0  0  0  0  0  0  0  0  0  0
   20.3065  -17.5840    0.0000 C   0  0  0  0  0  0  0  0  0  0  0  0
   20.3065  -18.9840    0.0000 F   0  0  0  0  0  0  0  0  0  0  0  0
   21.6999  -17.5839    0.0000 F   0  0  0  0  0  0  0  0  0  0  0  0
   18.9001  -17.5841    0.0000 F   0  0  0  0  0  0  0  0  0  0  0  0
   24.7529  -13.5722    0.0000 P   0  0  0  0  0  0  0  0  0  0  0  0
   26.0648  -13.5841    0.0000 O   0  0  0  0  0  0  0  0  0  0  0  0
   23.5239  -13.5841    0.0000 O   0  0  0  0  0  0  0  0  0  0  0  0
   24.8120  -15.0030    0.0000 O   0  0  0  0  0  0  0  0  0  0  0  0
   24.7882  -11.9456    0.0000 O   0  0  0  0  0  0  0  0  0  0  0  0
   25.6900  -17.7100    0.0000 O   0  0  0  0  0  0  0  0  0  0  0  0
   17.9900  -15.6100    0.0000 C   0  0  0  0  0  0  0  0  0  0  0  0
   17.9900  -17.0100    0.0000 C   0  0  0  0  0  0  0  0  0  0  0  0
   19.1800  -17.7100    0.0000 C   0  0  0  0  0  0  0  0  0  0  0  0
   20.4400  -17.0100    0.0000 C   0  0  0  0  0  0  0  0  0  0  0  0
   20.4400  -15.6100    0.0000 C   0  0  0  0  0  0  0  0  0  0  0  0
   19.1800  -14.9100    0.0000 C   0  0  0  0  0  0  0  0  0  0  0  0
   19.1800  -13.5100    0.0000 F   0  0  0  0  0  0  0  0  0  0  0  0
   19.1800  -19.1100    0.0000 F   0  0  0  0  0  0  0  0  0  0  0  0
   16.8000  -14.9100    0.0000 F   0  0  0  0  0  0  0  0  0  0  0  0
   21.6300  -17.7100    0.0000 C   0  0  0  0  0  0  0  0  0  0  0  0
   22.8900  -17.0100    0.0000 C   0  0  0  0  0  0  0  0  0  0  0  0
   24.0100  -17.7100    0.0000 C   0  0  0  0  0  0  0  0  0  0  0  0
   25.2000  -17.0100    0.0000 C   0  0  0  0  0  0  0  0  0  0  0  0
   26.3900  -17.7100    0.0000 N   0  0  0  0  0  0  0  0  0  0  0  0
   25.2000  -15.6100    0.0000 O   0  0  0  0  0  0  0  0  0  0  0  0
   22.8900  -15.6100    0.0000 N   0  0  0  0  0  0  0  0  0  0  0  0
   26.3900  -19.1100    0.0000 C   0  0  0  0  0  0  0  0  0  0  0  0
   27.6500  -19.8100    0.0000 C   0  0  0  0  0  0  0  0  0  0  0  0
   28.8400  -19.1100    0.0000 N   0  0  0  0  0  0  0  0  0  0  0  0
   28.8400  -17.7100    0.0000 C   0  0  0  0  0  0  0  0  0  0  0  0
   27.6500  -17.0100    0.0000 C   0  0  0  0  0  0  0  0  0  0  0  0
   30.1700  -19.5300    0.0000 C   0  0  0  0  0  0  0  0  0  0  0  0
   31.0100  -18.4100    0.0000 N   0  0  0  0  0  0  0  0  0  0  0  0
   30.1700  -17.2900    0.0000 N   0  0  0  0  0  0  0  0  0  0  0  0
   30.1700  -20.9300    0.0000 C   0  0  0  0  0  0  0  0  0  0  0  0
   30.1700  -22.3300    0.0000 F   0  0  0  0  0  0  0  0  0  0  0  0
   31.5700  -20.9300    0.0000 F   0  0  0  0  0  0  0  0  0  0  0  0
   28.7700  -20.9300    0.0000 F   0  0  0  0  0  0  0  0  0  0  0  0
   10.2430  -13.8910    0.0000 C   0  0  0  0  0  0  0  0  0  0  0  0
   10.2430  -15.2941    0.0000 C   0  0  0  0  0  0  0  0  0  0  0  0
   11.4357  -15.9957    0.0000 C   0  0  0  0  0  0  0  0  0  0  0  0
   12.6985  -15.2941    0.0000 C   0  0  0  0  0  0  0  0  0  0  0  0
   12.6985  -13.8910    0.0000 C   0  0  0  0  0  0  0  0  0  0  0  0
   11.4357  -13.1894    0.0000 C   0  0  0  0  0  0  0  0  0  0  0  0
   11.4357  -11.7863    0.0000 F   0  0  0  0  0  0  0  0  0  0  0  0
   11.4357  -17.3988    0.0000 F   0  0  0  0  0  0  0  0  0  0  0  0
    9.0503  -13.1894    0.0000 F   0  0  0  0  0  0  0  0  0  0  0  0
   13.8911  -15.9957    0.0000 C   0  0  0  0  0  0  0  0  0  0  0  0
   15.1539  -15.2941    0.0000 C   0  0  0  0  0  0  0  0  0  0  0  0
   16.2765  -15.9957    0.0000 C   0  0  0  0  0  0  0  0  0  0  0  0
   17.4691  -15.2941    0.0000 C   0  0  0  0  0  0  0  0  0  0  0  0
   18.6618  -15.9957    0.0000 N   0  0  0  0  0  0  0  0  0  0  0  0
   17.4691  -13.8910    0.0000 O   0  0  0  0  0  0  0  0  0  0  0  0
   15.1539  -13.8910    0.0000 N   0  0  0  0  0  0  0  0  0  0  0  0
   18.6618  -17.3988    0.0000 C   0  0  0  0  0  0  0  0  0  0  0  0
   19.9246  -18.1004    0.0000 C   0  0  0  0  0  0  0  0  0  0  0  0
   21.1172  -17.3988    0.0000 N   0  0  0  0  0  0  0  0  0  0  0  0
   21.1172  -15.9957    0.0000 C   0  0  0  0  0  0  0  0  0  0  0  0
   19.9246  -15.2941    0.0000 C   0  0  0  0  0  0  0  0  0  0  0  0
   22.4502  -17.8197    0.0000 C   0  0  0  0  0  0  0  0  0  0  0  0
   23.2921  -16.6972    0.0000 N   0  0  0  0  0  0  0  0  0  0  0  0
   22.4502  -15.5747    0.0000 N   0  0  0  0  0  0  0  0  0  0  0  0
   22.4502  -19.2229    0.0000 C   0  0  0  0  0  0  0  0  0  0  0  0
   22.4502  -20.6260    0.0000 F   0  0  0  0  0  0  0  0  0  0  0  0
   23.8533  -19.2229    0.0000 F   0  0  0  0  0  0  0  0  0  0  0  0
   21.0471  -19.2229    0.0000 F   0  0  0  0  0  0  0  0  0  0  0  0
   26.9402  -16.2039    0.0000 P   0  0  0  0  0  0  0  0  0  0  0  0
   28.2030  -16.2039    0.0000 O   0  0  0  0  0  0  0  0  0  0  0  0
   25.6774  -16.2039    0.0000 O   0  0  0  0  0  0  0  0  0  0  0  0
   27.0104  -17.6071    0.0000 O   0  0  0  0  0  0  0  0  0  0  0  0
   26.9402  -14.5904    0.0000 O   0  0  0  0  0  0  0  0  0  0  0  0
  1  2  2  0
  2  3  1  0
  3  4  2  0
  4  5  1  0
  5  6  2  0
  1  6  1  0
  5  7  1  0
  7  8  1  0
  8  9  2  0
  9 10  1  0
 10 11  2  0
 11 12  1  0
 12 13  2  0
  8 13  1  0
  4 14  1  0
 11 15  1  0
 15 16  1  0
 16 17  1  0
 18  1  1  1
 18 19  1  0
 19 20  1  0
 20 21  1  0
 21 22  1  0
 22 23  1  0
 18 23  1  0
 23 24  1  6
 21 25  1  6
 22 26  1  1
 20 27  1  1
 27 28  1  0
 20 29  1  0
 18 30  1  0
 29 30  1  0
 31 32  1  0
 32 33  1  0
 33 34  1  0
 34 35  1  0
 31 35  1  0
 34 36  1  6
 36 37  1  0
 36 38  2  0
 31 39  2  0
 40 41  2  0
 41 42  1  0
 42 43  2  0
 43 44  1  0
 44 45  2  0
 40 45  1  0
 44 46  1  0
 46 47  1  0
 47 48  2  0
 48 49  1  0
 49 50  2  0
 50 51  1  0
 51 52  2  0
 47 52  1  0
 43 53  1  0
 50 54  1  0
 54 55  1  0
 55 56  1  0
 57 40  1  1
 57 58  1  0
 58 59  1  0
 59 60  1  0
 60 61  1  0
 61 62  1  0
 57 62  1  0
 62 63  1  6
 60 64  1  6
 61 65  1  1
 59 66  1  1
 66 67  1  0
 59 68  1  0
 57 69  1  0
 68 69  1  0
 70 71  2  0
 71 72  1  0
 72 73  2  0
 73 74  1  0
 74 75  2  0
 70 75  1  0
 75 76  1  0
 72 77  1  0
 70 78  1  0
 73 79  1  0
 79 80  1  0
 80 81  1  0
 81 82  1  0
 82 83  1  0
 82 84  2  0
 80 85  1  1
 83 86  1  0
 86 87  1  0
 87 88  1  0
 88 89  1  0
 89 90  1  0
 83 90  1  0
 88 91  1  0
 91 92  2  0
 92 93  1  0
 89 93  2  0
 91 94  1  0
 94 95  1  0
 94 96  1  0
 94 97  1  0
 98 99  1  0
 98100  1  0
 98101  1  0
 98102  2  0
104105  2  0
105106  1  0
106107  2  0
107108  1  0
108109  2  0
104109  1  0
109110  1  0
106111  1  0
104112  1  0
107113  1  0
113114  1  0
114115  1  0
115116  1  0
116117  1  0
116118  2  0
114119  1  1
117120  1  0
120121  1  0
121122  1  0
122123  1  0
123124  1  0
117124  1  0
122125  1  0
125126  2  0
126127  1  0
123127  2  0
125128  1  0
128129  1  0
128130  1  0
128131  1  0
132133  2  0
133134  1  0
134135  2  0
135136  1  0
136137  2  0
132137  1  0
137138  1  0
134139  1  0
132140  1  0
135141  1  0
141142  1  0
142143  1  0
143144  1  0
144145  1  0
144146  2  0
142147  1  1
145148  1  0
148149  1  0
149150  1  0
150151  1  0
151152  1  0
145152  1  0
150153  1  0
153154  2  0
154155  1  0
151155  2  0
153156  1  0
156157  1  0
156158  1  0
156159  1  0
160161  1  0
160162  1  0
160163  1  0
160164  2  0
M  END
