 
     RDKit          2D

240255  0  0  1  0  0  0  0  0999 V2000
   23.4500  -18.5500    0.0000 C   0  0  0  0  0  0  0  0  0  0  0  0
   23.4500  -17.2200    0.0000 C   0  0  0  0  0  0  0  0  0  0  0  0
   24.6400  -19.2500    0.0000 C   0  0  0  0  0  0  0  0  0  0  0  0
   22.3300  -19.1800    0.0000 C   0  0  0  0  0  0  0  0  0  0  0  0
   24.6400  -17.9200    0.0000 C   0  0  0  0  0  0  0  0  0  0  0  0
   22.3300  -16.5900    0.0000 C   0  0  0  0  0  0  0  0  0  0  0  0
   24.6400  -16.5900    0.0000 C   0  0  0  0  0  0  0  0  0  0  0  0
   25.7600  -18.5500    0.0000 C   0  0  0  0  0  0  0  0  0  0  0  0
   24.6400  -20.5100    0.0000 C   0  0  0  0  0  0  0  0  0  0  0  0
   21.0700  -17.8500    0.0000 O   0  0  0  0  0  0  0  0  0  0  0  0
   22.3300  -20.5100    0.0000 C   0  0  0  0  0  0  0  0  0  0  0  0
   26.8800  -17.9200    0.0000 C   0  0  0  0  0  0  0  0  0  0  0  0
   22.3300  -15.2600    0.0000 C   0  0  0  0  0  0  0  0  0  0  0  0
   25.7600  -17.2900    0.0000 C   0  0  0  0  0  0  0  0  0  0  0  0
   24.6400  -15.2600    0.0000 C   0  0  0  0  0  0  0  0  0  0  0  0
   26.8800  -19.2500    0.0000 N   0  0  0  0  0  0  0  0  0  0  0  0
   23.4500  -21.2100    0.0000 C   0  0  0  0  0  0  0  0  0  0  0  0
   21.2800  -21.2100    0.0000 O   0  0  0  0  0  0  0  0  0  0  0  0
   23.5200  -14.6300    0.0000 C   0  0  0  0  0  0  0  0  0  0  0  0
   21.2800  -14.6300    0.0000 O   0  0  0  0  0  0  0  0  0  0  0  0
   20.0900  -15.2600    0.0000 C   0  0  0  0  0  0  0  0  0  0  0  0
   28.2800  -19.2500    0.0000 C   0  0  0  0  0  0  0  0  0  0  0  0
   -1.0717   -0.2062    0.0000 C   0  0  0  0  0  0  0  0  0  0  0  0
   -1.0717   -1.0313    0.0000 C   0  0  0  0  0  0  0  0  0  0  0  0
   -0.3572   -1.4438    0.0000 C   0  0  0  0  0  0  0  0  0  0  0  0
    0.3572   -1.0313    0.0000 C   0  0  0  0  0  0  0  0  0  0  0  0
    0.3572   -0.2062    0.0000 C   0  0  0  0  0  0  0  0  0  0  0  0
   -0.3572    0.2062    0.0000 C   0  0  0  0  0  0  0  0  0  0  0  0
   -0.3572    1.0313    0.0000 C   0  0  0  0  0  0  0  0  0  0  0  0
   -1.0717    1.4438    0.0000 *   0  0  0  0  0  0  0  0  0  0  0  0
    0.3572    1.4438    0.0000 C   0  0  0  0  0  0  0  0  0  0  0  0
    1.0717    1.0313    0.0000 *   0  0  0  0  0  0  0  0  0  0  0  0
   25.7578  -16.0286    0.0000 C   0  0  0  0  0  0  0  0  0  0  0  0
   25.7578  -14.6988    0.0000 C   0  0  0  0  0  0  0  0  0  0  0  0
   26.9476  -16.7286    0.0000 C   0  0  0  0  0  0  0  0  0  0  0  0
   24.6379  -16.6586    0.0000 C   0  0  0  0  0  0  0  0  0  0  0  0
   26.9476  -15.3987    0.0000 C   0  0  0  0  0  0  0  0  0  0  0  0
   24.6379  -14.0688    0.0000 C   0  0  0  0  0  0  0  0  0  0  0  0
   26.9476  -14.0688    0.0000 C   0  0  0  0  0  0  0  0  0  0  0  0
   28.0675  -16.0286    0.0000 C   0  0  0  0  0  0  0  0  0  0  0  0
   26.9476  -17.9885    0.0000 C   0  0  0  0  0  0  0  0  0  0  0  0
   23.3780  -15.3287    0.0000 O   0  0  0  0  0  0  0  0  0  0  0  0
   24.6379  -17.9885    0.0000 C   0  0  0  0  0  0  0  0  0  0  0  0
   29.1874  -15.3987    0.0000 C   0  0  0  0  0  0  0  0  0  0  0  0
   24.6379  -12.7389    0.0000 C   0  0  0  0  0  0  0  0  0  0  0  0
   28.0675  -14.7688    0.0000 C   0  0  0  0  0  0  0  0  0  0  0  0
   26.9476  -12.7389    0.0000 C   0  0  0  0  0  0  0  0  0  0  0  0
   29.1874  -16.7286    0.0000 N   0  0  0  0  0  0  0  0  0  0  0  0
   25.7578  -18.6884    0.0000 C   0  0  0  0  0  0  0  0  0  0  0  0
   23.5880  -18.6884    0.0000 O   0  0  0  0  0  0  0  0  0  0  0  0
   25.8277  -12.1090    0.0000 C   0  0  0  0  0  0  0  0  0  0  0  0
   23.5880  -12.1090    0.0000 O   0  0  0  0  0  0  0  0  0  0  0  0
   22.3981  -12.7389    0.0000 C   0  0  0  0  0  0  0  0  0  0  0  0
   30.5873  -16.7286    0.0000 C   0  0  0  0  0  0  0  0  0  0  0  0
   34.5301  -13.5792    0.0000 O   0  0  0  0  0  0  0  0  0  0  0  0
   35.7425  -14.2791    0.0000 C   0  0  0  0  0  0  0  0  0  0  0  0
   36.9549  -13.5792    0.0000 C   0  0  0  0  0  0  0  0  0  0  0  0
   38.1672  -14.2791    0.0000 C   0  0  0  0  0  0  0  0  0  0  0  0
   39.3797  -13.5792    0.0000 C   0  0  0  0  0  0  0  0  0  0  0  0
   40.5920  -14.2791    0.0000 O   0  0  0  0  0  0  0  0  0  0  0  0
   35.7425  -15.6789    0.0000 O   0  0  0  0  0  0  0  0  0  0  0  0
   36.9549  -12.1792    0.0000 O   0  0  0  0  0  0  0  0  0  0  0  0
   38.1672  -15.6790    0.0000 O   0  0  0  0  0  0  0  0  0  0  0  0
   39.3797  -12.1795    0.0000 O   0  0  0  0  0  0  0  0  0  0  0  0
   38.2200  -18.0600    0.0000 O   0  0  0  0  0  0  0  0  0  0  0  0
   25.7578  -16.0286    0.0000 C   0  0  0  0  0  0  0  0  0  0  0  0
   25.7578  -14.6988    0.0000 C   0  0  0  0  0  0  0  0  0  0  0  0
   24.6379  -14.0688    0.0000 C   0  0  0  0  0  0  0  0  0  0  0  0
   24.6379  -12.7389    0.0000 C   0  0  0  0  0  0  0  0  0  0  0  0
   25.8277  -12.1090    0.0000 C   0  0  0  0  0  0  0  0  0  0  0  0
   26.9476  -12.7389    0.0000 C   0  0  0  0  0  0  0  0  0  0  0  0
   26.9476  -14.0688    0.0000 C   0  0  0  0  0  0  0  0  0  0  0  0
   28.0675  -14.7688    0.0000 C   0  0  0  0  0  0  0  0  0  0  0  0
   28.0675  -16.0286    0.0000 C   0  0  0  0  0  0  0  0  0  0  0  0
   26.9476  -16.7286    0.0000 C   0  0  0  0  0  0  0  0  0  0  0  0
   26.9476  -17.9885    0.0000 C   0  0  0  0  0  0  0  0  0  0  0  0
   25.7578  -18.6884    0.0000 C   0  0  0  0  0  0  0  0  0  0  0  0
   24.6379  -17.9885    0.0000 C   0  0  0  0  0  0  0  0  0  0  0  0
   24.6379  -16.6586    0.0000 C   0  0  0  0  0  0  0  0  0  0  0  0
   23.3780  -15.3287    0.0000 O   0  0  0  0  0  0  0  0  0  0  0  0
   23.5880  -18.6884    0.0000 O   0  0  0  0  0  0  0  0  0  0  0  0
   29.1874  -16.7286    0.0000 N   0  0  0  0  0  0  0  0  0  0  0  0
   29.1874  -15.3987    0.0000 C   0  0  0  0  0  0  0  0  0  0  0  0
   26.9476  -15.3987    0.0000 C   0  0  0  0  0  0  0  0  0  0  0  0
   30.5873  -16.7286    0.0000 C   0  0  0  0  0  0  0  0  0  0  0  0
   23.5880  -12.1090    0.0000 O   0  0  0  0  0  0  0  0  0  0  0  0
   22.3981  -12.7389    0.0000 C   0  0  0  0  0  0  0  0  0  0  0  0
   34.5301  -13.5792    0.0000 O   0  0  0  0  0  0  0  0  0  0  0  0
   35.7425  -14.2791    0.0000 C   0  0  0  0  0  0  0  0  0  0  0  0
   36.9549  -13.5792    0.0000 C   0  0  0  0  0  0  0  0  0  0  0  0
   38.1672  -14.2791    0.0000 C   0  0  0  0  0  0  0  0  0  0  0  0
   39.3797  -13.5792    0.0000 C   0  0  0  0  0  0  0  0  0  0  0  0
   40.5920  -14.2791    0.0000 O   0  0  0  0  0  0  0  0  0  0  0  0
   39.3797  -12.1795    0.0000 O   0  0  0  0  0  0  0  0  0  0  0  0
   38.1672  -15.6790    0.0000 O   0  0  0  0  0  0  0  0  0  0  0  0
   36.9549  -12.1792    0.0000 O   0  0  0  0  0  0  0  0  0  0  0  0
   35.7425  -15.6789    0.0000 O   0  0  0  0  0  0  0  0  0  0  0  0
   38.2200  -18.0600    0.0000 O   0  0  0  0  0  0  0  0  0  0  0  0
   38.2200  -18.0600    0.0000 O   0  0  0  0  0  0  0  0  0  0  0  0
   38.2200  -18.0600    0.0000 O   0  0  0  0  0  0  0  0  0  0  0  0
   38.2200  -18.0600    0.0000 O   0  0  0  0  0  0  0  0  0  0  0  0
   23.4500  -18.5500    0.0000 C   0  0  0  0  0  0  0  0  0  0  0  0
   23.4500  -17.2200    0.0000 C   0  0  0  0  0  0  0  0  0  0  0  0
   24.6400  -19.2500    0.0000 C   0  0  0  0  0  0  0  0  0  0  0  0
   22.3300  -19.1800    0.0000 C   0  0  0  0  0  0  0  0  0  0  0  0
   24.6400  -17.9200    0.0000 C   0  0  0  0  0  0  0  0  0  0  0  0
   22.3300  -16.5900    0.0000 C   0  0  0  0  0  0  0  0  0  0  0  0
   24.6400  -16.5900    0.0000 C   0  0  0  0  0  0  0  0  0  0  0  0
   25.7600  -18.5500    0.0000 C   0  0  0  0  0  0  0  0  0  0  0  0
   24.6400  -20.5100    0.0000 C   0  0  0  0  0  0  0  0  0  0  0  0
   21.0700  -17.8500    0.0000 O   0  0  0  0  0  0  0  0  0  0  0  0
   22.3300  -20.5100    0.0000 C   0  0  0  0  0  0  0  0  0  0  0  0
   26.8800  -17.9200    0.0000 C   0  0  0  0  0  0  0  0  0  0  0  0
   22.3300  -15.2600    0.0000 C   0  0  0  0  0  0  0  0  0  0  0  0
   25.7600  -17.2900    0.0000 C   0  0  0  0  0  0  0  0  0  0  0  0
   24.6400  -15.2600    0.0000 C   0  0  0  0  0  0  0  0  0  0  0  0
   26.8800  -19.2500    0.0000 N   0  0  0  0  0  0  0  0  0  0  0  0
   23.4500  -21.2100    0.0000 C   0  0  0  0  0  0  0  0  0  0  0  0
   21.2800  -21.2100    0.0000 O   0  0  0  0  0  0  0  0  0  0  0  0
   23.5200  -14.6300    0.0000 C   0  0  0  0  0  0  0  0  0  0  0  0
   21.2800  -14.6300    0.0000 O   0  0  0  0  0  0  0  0  0  0  0  0
   20.0900  -15.2600    0.0000 C   0  0  0  0  0  0  0  0  0  0  0  0
   28.2800  -19.2500    0.0000 C   0  0  0  0  0  0  0  0  0  0  0  0
   23.3800  -18.5500    0.0000 C   0  0  0  0  0  0  0  0  0  0  0  0
   23.3800  -17.2200    0.0000 C   0  0  0  0  0  0  0  0  0  0  0  0
   24.5700  -19.2500    0.0000 C   0  0  0  0  0  0  0  0  0  0  0  0
   22.2600  -19.1800    0.0000 C   0  0  0  0  0  0  0  0  0  0  0  0
   24.5700  -17.9200    0.0000 C   0  0  0  0  0  0  0  0  0  0  0  0
   22.2600  -16.5900    0.0000 C   0  0  0  0  0  0  0  0  0  0  0  0
   24.5700  -16.5900    0.0000 C   0  0  0  0  0  0  0  0  0  0  0  0
   25.6900  -18.5500    0.0000 C   0  0  0  0  0  0  0  0  0  0  0  0
   24.5700  -20.5100    0.0000 C   0  0  0  0  0  0  0  0  0  0  0  0
   21.0000  -17.8500    0.0000 O   0  0  0  0  0  0  0  0  0  0  0  0
   22.2600  -20.5100    0.0000 C   0  0  0  0  0  0  0  0  0  0  0  0
   26.8800  -17.9200    0.0000 C   0  0  0  0  0  0  0  0  0  0  0  0
   22.2600  -15.2600    0.0000 C   0  0  0  0  0  0  0  0  0  0  0  0
   25.6900  -17.2900    0.0000 C   0  0  0  0  0  0  0  0  0  0  0  0
   24.5700  -15.2600    0.0000 C   0  0  0  0  0  0  0  0  0  0  0  0
   26.8800  -19.2500    0.0000 N   0  0  0  0  0  0  0  0  0  0  0  0
   23.3800  -21.2100    0.0000 C   0  0  0  0  0  0  0  0  0  0  0  0
   21.2100  -21.2100    0.0000 O   0  0  0  0  0  0  0  0  0  0  0  0
   23.4500  -14.6300    0.0000 C   0  0  0  0  0  0  0  0  0  0  0  0
   21.2100  -14.6300    0.0000 O   0  0  0  0  0  0  0  0  0  0  0  0
   20.0200  -15.2600    0.0000 C   0  0  0  0  0  0  0  0  0  0  0  0
   28.2800  -19.2500    0.0000 C   0  0  0  0  0  0  0  0  0  0  0  0
   31.4300  -17.4300    0.0000 Cl  0  0  0  0  0  0  0  0  0  0  0  0
   13.8600  -15.8900    0.0000 C   0  0  0  0  0  0  0  0  0  0  0  0
   13.8600  -17.2900    0.0000 C   0  0  0  0  0  0  0  0  0  0  0  0
   15.0724  -17.9900    0.0000 C   0  0  0  0  0  0  0  0  0  0  0  0
   16.2849  -17.2900    0.0000 C   0  0  0  0  0  0  0  0  0  0  0  0
   16.2849  -15.8900    0.0000 C   0  0  0  0  0  0  0  0  0  0  0  0
   15.0724  -15.1900    0.0000 C   0  0  0  0  0  0  0  0  0  0  0  0
   17.5160  -15.1790    0.0000 C   0  0  0  0  0  0  0  0  0  0  0  0
   18.7212  -15.8747    0.0000 C   0  0  0  0  0  0  0  0  0  0  0  0
   18.7216  -17.2896    0.0000 C   0  0  0  0  0  0  0  0  0  0  0  0
   19.9342  -17.9893    0.0000 C   0  0  0  0  0  0  0  0  0  0  0  0
   21.1465  -17.2889    0.0000 C   0  0  0  0  0  0  0  0  0  0  0  0
   21.1460  -15.8739    0.0000 C   0  0  0  0  0  0  0  0  0  0  0  0
   19.9334  -15.1743    0.0000 N   0  0  0  0  0  0  0  0  0  0  0  0
   17.5157  -13.7901    0.0000 C   0  0  0  0  0  0  0  0  0  0  0  0
   18.7281  -13.0901    0.0000 C   0  0  0  0  0  0  0  0  0  0  0  0
   18.7281  -11.6901    0.0000 N   0  0  0  0  0  0  0  0  0  0  0  0
   19.9643  -10.9760    0.0000 C   0  0  0  0  0  0  0  0  0  0  0  0
   17.5397  -11.0038    0.0000 C   0  0  0  0  0  0  0  0  0  0  0  0
   12.6476  -17.9900    0.0000 Cl  0  0  0  0  0  0  0  0  0  0  0  0
   13.8600  -15.8900    0.0000 C   0  0  0  0  0  0  0  0  0  0  0  0
   13.8600  -17.2900    0.0000 C   0  0  0  0  0  0  0  0  0  0  0  0
   15.0724  -17.9900    0.0000 C   0  0  0  0  0  0  0  0  0  0  0  0
   16.2849  -17.2900    0.0000 C   0  0  0  0  0  0  0  0  0  0  0  0
   16.2849  -15.8900    0.0000 C   0  0  0  0  0  0  0  0  0  0  0  0
   15.0724  -15.1900    0.0000 C   0  0  0  0  0  0  0  0  0  0  0  0
   17.5160  -15.1790    0.0000 C   0  0  0  0  0  0  0  0  0  0  0  0
   18.7212  -15.8747    0.0000 C   0  0  0  0  0  0  0  0  0  0  0  0
   18.7216  -17.2896    0.0000 C   0  0  0  0  0  0  0  0  0  0  0  0
   19.9342  -17.9893    0.0000 C   0  0  0  0  0  0  0  0  0  0  0  0
   21.1465  -17.2889    0.0000 C   0  0  0  0  0  0  0  0  0  0  0  0
   21.1460  -15.8739    0.0000 C   0  0  0  0  0  0  0  0  0  0  0  0
   19.9334  -15.1743    0.0000 N   0  0  0  0  0  0  0  0  0  0  0  0
   17.5157  -13.7901    0.0000 C   0  0  0  0  0  0  0  0  0  0  0  0
   18.7281  -13.0901    0.0000 C   0  0  0  0  0  0  0  0  0  0  0  0
   18.7281  -11.6901    0.0000 N   0  0  0  0  0  0  0  0  0  0  0  0
   19.9643  -10.9760    0.0000 C   0  0  0  0  0  0  0  0  0  0  0  0
   17.5397  -11.0038    0.0000 C   0  0  0  0  0  0  0  0  0  0  0  0
   12.6476  -17.9900    0.0000 Cl  0  0  0  0  0  0  0  0  0  0  0  0
   -1.0717   -0.2062    0.0000 C   0  0  0  0  0  0  0  0  0  0  0  0
   -1.0717   -1.0313    0.0000 C   0  0  0  0  0  0  0  0  0  0  0  0
   -0.3572   -1.4438    0.0000 C   0  0  0  0  0  0  0  0  0  0  0  0
    0.3572   -1.0313    0.0000 C   0  0  0  0  0  0  0  0  0  0  0  0
    0.3572   -0.2062    0.0000 C   0  0  0  0  0  0  0  0  0  0  0  0
   -0.3572    0.2062    0.0000 C   0  0  0  0  0  0  0  0  0  0  0  0
   -0.3572    1.0313    0.0000 C   0  0  0  0  0  0  0  0  0  0  0  0
   -1.0717    1.4438    0.0000 *   0  0  0  0  0  0  0  0  0  0  0  0
    0.3572    1.4438    0.0000 C   0  0  0  0  0  0  0  0  0  0  0  0
    1.0717    1.0313    0.0000 *   0  0  0  0  0  0  0  0  0  0  0  0
   19.2774  -11.8495    0.0000 C   0  0  0  0  0  0  0  0  0  0  0  0
   17.7264  -11.8554    0.0000 C   0  0  0  0  0  0  0  0  0  0  0  0
   19.9250  -12.9665    0.0000 C   0  0  0  0  0  0  0  0  0  0  0  0
   17.0845  -12.9784    0.0000 C   0  0  0  0  0  0  0  0  0  0  0  0
   19.2832  -14.0898    0.0000 O   0  0  0  0  0  0  0  0  0  0  0  0
   21.2204  -12.9607    0.0000 O   0  0  0  0  0  0  0  0  0  0  0  0
   15.7890  -12.9784    0.0000 O   0  0  0  0  0  0  0  0  0  0  0  0
   17.7381  -14.0956    0.0000 O   0  0  0  0  0  0  0  0  0  0  0  0
    7.0000  -14.8400    0.0000 C   0  0  0  0  0  0  0  0  0  0  0  0
    7.0000  -16.2400    0.0000 C   0  0  0  0  0  0  0  0  0  0  0  0
    8.2124  -16.9400    0.0000 C   0  0  0  0  0  0  0  0  0  0  0  0
    9.4249  -16.2400    0.0000 C   0  0  0  0  0  0  0  0  0  0  0  0
    9.4249  -14.8400    0.0000 C   0  0  0  0  0  0  0  0  0  0  0  0
    8.2124  -14.1400    0.0000 C   0  0  0  0  0  0  0  0  0  0  0  0
   11.8497  -16.2400    0.0000 C   0  0  0  0  0  0  0  0  0  0  0  0
   11.8497  -14.8400    0.0000 C   0  0  0  0  0  0  0  0  0  0  0  0
   10.6373  -14.1400    0.0000 C   0  0  0  0  0  0  0  0  0  0  0  0
   13.0622  -16.9400    0.0000 C   0  0  0  0  0  0  0  0  0  0  0  0
   14.2746  -16.2400    0.0000 C   0  0  0  0  0  0  0  0  0  0  0  0
   14.2746  -14.8400    0.0000 C   0  0  0  0  0  0  0  0  0  0  0  0
   13.0622  -14.1400    0.0000 N   0  0  0  0  0  0  0  0  0  0  0  0
    5.7876  -16.9400    0.0000 Cl  0  0  0  0  0  0  0  0  0  0  0  0
   10.6373  -12.7400    0.0000 C   0  0  0  0  0  0  0  0  0  0  0  0
   11.8518  -12.0388    0.0000 C   0  0  0  0  0  0  0  0  0  0  0  0
   11.8518  -10.6402    0.0000 N   0  0  0  0  0  0  0  0  0  0  0  0
   13.0479   -9.9495    0.0000 C   0  0  0  0  0  0  0  0  0  0  0  0
   10.6230   -9.9306    0.0000 C   0  0  0  0  0  0  0  0  0  0  0  0
   13.8600  -15.8900    0.0000 C   0  0  0  0  0  0  0  0  0  0  0  0
   13.8600  -17.2900    0.0000 C   0  0  0  0  0  0  0  0  0  0  0  0
   15.0724  -17.9900    0.0000 C   0  0  0  0  0  0  0  0  0  0  0  0
   16.2849  -17.2900    0.0000 C   0  0  0  0  0  0  0  0  0  0  0  0
   16.2849  -15.8900    0.0000 C   0  0  0  0  0  0  0  0  0  0  0  0
   15.0724  -15.1900    0.0000 C   0  0  0  0  0  0  0  0  0  0  0  0
   17.5160  -15.1790    0.0000 C   0  0  0  0  0  0  0  0  0  0  0  0
   18.7212  -15.8747    0.0000 C   0  0  0  0  0  0  0  0  0  0  0  0
   18.7216  -17.2896    0.0000 C   0  0  0  0  0  0  0  0  0  0  0  0
   19.9342  -17.9893    0.0000 C   0  0  0  0  0  0  0  0  0  0  0  0
   21.1465  -17.2889    0.0000 C   0  0  0  0  0  0  0  0  0  0  0  0
   21.1460  -15.8739    0.0000 C   0  0  0  0  0  0  0  0  0  0  0  0
   19.9334  -15.1743    0.0000 N   0  0  0  0  0  0  0  0  0  0  0  0
   17.5157  -13.7901    0.0000 C   0  0  0  0  0  0  0  0  0  0  0  0
   18.7281  -13.0901    0.0000 C   0  0  0  0  0  0  0  0  0  0  0  0
   18.7281  -11.6901    0.0000 N   0  0  0  0  0  0  0  0  0  0  0  0
   19.9643  -10.9760    0.0000 C   0  0  0  0  0  0  0  0  0  0  0  0
   17.5397  -11.0038    0.0000 C   0  0  0  0  0  0  0  0  0  0  0  0
   12.6476  -17.9900    0.0000 Cl  0  0  0  0  0  0  0  0  0  0  0  0
  1  2  1  0
  1  3  1  0
  1  4  1  0
  1  5  1  1
  2  6  2  0
  2  7  1  0
  3  8  1  0
  3  9  1  6
  4 10  1  6
  4 11  1  0
  5 12  1  0
  6 13  1  0
  7 14  1  0
  7 15  2  0
  8 16  1  0
  9 17  1  0
 11 18  2  0
 13 19  2  0
 13 20  1  0
 20 21  1  0
  6 10  1  0
  8 14  1  1
 11 17  1  0
 12 16  1  0
 15 19  1  0
 16 22  1  0
 23 24  2  0
 24 25  1  0
 25 26  2  0
 26 27  1  0
 27 28  2  0
 28 23  1  0
 28 29  1  0
 29 30  1  0
 29 31  1  0
 31 32  1  0
 33 34  1  0
 33 35  1  0
 33 36  1  0
 33 37  1  1
 34 38  2  0
 34 39  1  0
 35 40  1  0
 35 41  1  6
 36 42  1  6
 36 43  1  0
 37 44  1  0
 38 45  1  0
 39 46  1  0
 39 47  2  0
 40 48  1  0
 41 49  1  0
 43 50  2  0
 45 51  2  0
 45 52  1  0
 52 53  1  0
 38 42  1  0
 40 46  1  1
 43 49  1  0
 44 48  1  0
 47 51  1  0
 48 54  1  0
 66 67  1  0
 66 75  1  0
 66 79  1  0
 66 84  1  1
 67 68  1  0
 67 72  2  0
 75 74  1  0
 75 76  1  6
 79 80  1  6
 79 78  1  0
 84 83  1  0
 68 69  2  0
 72 73  1  0
 72 71  1  0
 74 82  1  0
 76 77  1  0
 78 81  2  0
 69 70  1  0
 69 86  1  0
 86 87  1  0
 68 80  1  0
 74 73  1  1
 78 77  1  0
 83 82  1  0
 71 70  2  0
 82 85  1  0
 55 56  1  0
 56 57  1  0
 57 58  1  0
 58 59  1  0
 59 60  1  0
 56 61  2  0
 57 62  1  6
 58 63  1  6
 59 64  2  0
 88 89  1  0
 89 90  1  0
 90 91  1  0
 91 92  1  0
 92 93  1  0
 89 97  2  0
 90 96  1  6
 91 95  1  6
 92 94  2  0
102103  1  0
102104  1  0
102105  1  0
102106  1  1
103107  2  0
103108  1  0
104109  1  0
104110  1  6
105111  1  6
105112  1  0
106113  1  0
107114  1  0
108115  1  0
108116  2  0
109117  1  0
110118  1  0
112119  2  0
114120  2  0
114121  1  0
121122  1  0
107111  1  0
109115  1  1
112118  1  0
113117  1  0
116120  1  0
117123  1  0
124125  1  0
124126  1  0
124127  1  0
124128  1  1
125129  2  0
125130  1  0
126131  1  0
126132  1  6
127133  1  6
127134  1  0
128135  1  0
129136  1  0
130137  1  0
130138  2  0
131139  1  0
132140  1  0
134141  2  0
136142  2  0
136143  1  0
143144  1  0
129133  1  0
131137  1  1
134140  1  0
135139  1  0
138142  1  0
139145  1  0
147148  2  0
148149  1  0
149150  2  0
150151  1  0
151152  2  0
147152  1  0
151153  1  0
153154  1  0
154155  2  0
155156  1  0
156157  2  0
157158  1  0
158159  2  0
154159  1  0
153160  1  0
160161  1  0
161162  1  0
162163  1  0
162164  1  0
148165  1  0
166167  2  0
167168  1  0
168169  2  0
169170  1  0
170171  2  0
166171  1  0
170172  1  0
172173  1  0
173174  2  0
174175  1  0
175176  2  0
176177  1  0
177178  2  0
173178  1  0
172179  1  0
179180  1  0
180181  1  0
181182  1  0
181183  1  0
167184  1  0
185186  2  0
186187  1  0
187188  2  0
188189  1  0
189190  2  0
190185  1  0
190191  1  0
191192  1  0
191193  1  0
193194  1  0
195196  2  0
195197  1  0
196198  1  0
197199  1  0
197200  2  0
198201  1  0
198202  2  0
203204  2  0
204205  1  0
205206  2  0
206207  1  0
207208  2  0
203208  1  0
209210  2  0
210211  1  0
207211  1  0
209212  1  0
212213  2  0
213214  1  0
214215  2  0
210215  1  0
204216  1  0
211217  1  0
217218  1  0
218219  1  0
219220  1  0
219221  1  0
222223  2  0
223224  1  0
224225  2  0
225226  1  0
226227  2  0
222227  1  0
226228  1  0
228229  1  0
229230  2  0
230231  1  0
231232  2  0
232233  1  0
233234  2  0
229234  1  0
228235  1  0
235236  1  0
236237  1  0
237238  1  0
237239  1  0
223240  1  0
V   30 *
V   32 *
V  192 *
V  194 *
M  END
