 
     RDKit          2D

 66 72  0  0  1  0  0  0  0  0999 V2000
   16.1000  -21.3500    0.0000 C   0  0  0  0  0  0  0  0  0  0  0  0
   17.2900  -20.6500    0.0000 C   0  0  0  0  0  0  0  0  0  0  0  0
   14.8400  -20.6500    0.0000 C   0  0  0  0  0  0  0  0  0  0  0  0
   18.4800  -21.3500    0.0000 N   0  0  0  0  0  0  0  0  0  0  0  0
   19.6700  -20.6500    0.0000 C   0  0  0  0  0  0  0  0  0  0  0  0
   19.6700  -19.2500    0.0000 C   0  0  0  0  0  0  0  0  0  0  0  0
   20.9300  -18.5500    0.0000 C   0  0  0  0  0  0  0  0  0  0  0  0
   22.0500  -19.2500    0.0000 C   0  0  0  0  0  0  0  0  0  0  0  0
   22.0500  -20.6500    0.0000 C   0  0  0  0  0  0  0  0  0  0  0  0
   20.9300  -21.3500    0.0000 C   0  0  0  0  0  0  0  0  0  0  0  0
   17.2900  -19.2500    0.0000 O   0  0  0  0  0  0  0  0  0  0  0  0
   13.6500  -21.3500    0.0000 C   0  0  0  0  0  0  0  0  0  0  0  0
   12.3900  -20.6500    0.0000 C   0  0  0  0  0  0  0  0  0  0  0  0
   12.3900  -19.2500    0.0000 C   0  0  0  0  0  0  0  0  0  0  0  0
   13.5800  -18.5500    0.0000 C   0  0  0  0  0  0  0  0  0  0  0  0
   14.8400  -19.2500    0.0000 C   0  0  0  0  0  0  0  0  0  0  0  0
   11.0600  -21.0700    0.0000 O   0  0  0  0  0  0  0  0  0  0  0  0
   10.2900  -19.9500    0.0000 C   0  0  0  0  0  0  0  0  0  0  0  0
   11.0600  -18.8300    0.0000 O   0  0  0  0  0  0  0  0  0  0  0  0
    9.2400  -20.9300    0.0000 F   0  0  0  0  0  0  0  0  0  0  0  0
    9.2400  -18.9700    0.0000 F   0  0  0  0  0  0  0  0  0  0  0  0
   15.3300  -22.5400    0.0000 C   0  0  0  0  0  0  0  0  0  0  0  0
   16.8000  -22.5400    0.0000 C   0  0  0  0  0  0  0  0  0  0  0  0
   18.4800  -18.5500    0.0000 F   0  0  0  0  0  0  0  0  0  0  0  0
   23.3800  -18.8300    0.0000 N   0  0  0  0  0  0  0  0  0  0  0  0
   24.2200  -19.9500    0.0000 C   0  0  0  0  0  0  0  0  0  0  0  0
   23.3800  -21.0700    0.0000 C   0  0  0  0  0  0  0  0  0  0  0  0
   25.6200  -19.9500    0.0000 C   0  0  0  0  0  0  0  0  0  0  0  0
   26.3200  -21.1400    0.0000 C   0  0  0  0  0  0  0  0  0  0  0  0
   27.7200  -21.1400    0.0000 O   0  0  0  0  0  0  0  0  0  0  0  0
   23.3800  -17.4300    0.0000 C   0  0  0  0  0  0  0  0  0  0  0  0
   24.5700  -16.7300    0.0000 C   0  0  0  0  0  0  0  0  0  0  0  0
   25.7600  -17.4300    0.0000 O   0  0  0  0  0  0  0  0  0  0  0  0
   24.5700  -15.3300    0.0000 C   0  0  0  0  0  0  0  0  0  0  0  0
   25.7600  -14.6300    0.0000 O   0  0  0  0  0  0  0  0  0  0  0  0
   26.3200  -18.7600    0.0000 C   0  0  0  0  0  0  0  0  0  0  0  0
   27.0200  -19.9500    0.0000 C   0  0  0  0  0  0  0  0  0  0  0  0
    7.4900  -23.8000    0.0000 C   0  0  0  0  0  0  0  0  0  0  0  0
    7.4900  -22.4000    0.0000 C   0  0  0  0  0  0  0  0  0  0  0  0
    8.6800  -21.7000    0.0000 C   0  0  0  0  0  0  0  0  0  0  0  0
    9.9400  -22.4000    0.0000 C   0  0  0  0  0  0  0  0  0  0  0  0
    9.9400  -23.8000    0.0000 C   0  0  0  0  0  0  0  0  0  0  0  0
    8.6800  -24.5000    0.0000 C   0  0  0  0  0  0  0  0  0  0  0  0
   11.1300  -21.7000    0.0000 C   0  0  0  0  0  0  0  0  0  0  0  0
   12.3200  -22.4000    0.0000 C   0  0  0  0  0  0  0  0  0  0  0  0
   12.3200  -23.8000    0.0000 C   0  0  0  0  0  0  0  0  0  0  0  0
   11.1300  -24.5000    0.0000 N   0  0  0  0  0  0  0  0  0  0  0  0
   13.5100  -21.7000    0.0000 C   0  0  0  0  0  0  0  0  0  0  0  0
   14.7000  -22.4000    0.0000 N   0  0  0  0  0  0  0  0  0  0  0  0
   15.8900  -21.7000    0.0000 C   0  0  0  0  0  0  0  0  0  0  0  0
   13.5100  -20.3000    0.0000 O   0  0  0  0  0  0  0  0  0  0  0  0
   11.1300  -20.3000    0.0000 O   0  0  0  0  0  0  0  0  0  0  0  0
   15.8900  -20.3000    0.0000 C   0  0  0  0  0  0  0  0  0  0  0  0
   17.1500  -19.6000    0.0000 C   0  0  0  0  0  0  0  0  0  0  0  0
   18.3400  -20.3000    0.0000 C   0  0  0  0  0  0  0  0  0  0  0  0
   18.3400  -21.7000    0.0000 C   0  0  0  0  0  0  0  0  0  0  0  0
   17.1500  -22.4000    0.0000 C   0  0  0  0  0  0  0  0  0  0  0  0
   17.1500  -23.8000    0.0000 C   0  0  0  0  0  0  0  0  0  0  0  0
   18.3400  -24.5000    0.0000 C   0  0  0  0  0  0  0  0  0  0  0  0
   15.9600  -24.5000    0.0000 C   0  0  0  0  0  0  0  0  0  0  0  0
   17.1500  -25.2000    0.0000 C   0  0  0  0  0  0  0  0  0  0  0  0
   17.1500  -18.2000    0.0000 O   0  0  0  0  0  0  0  0  0  0  0  0
   19.5300  -19.6000    0.0000 C   0  0  0  0  0  0  0  0  0  0  0  0
   20.7200  -20.3000    0.0000 C   0  0  0  0  0  0  0  0  0  0  0  0
   19.5300  -18.2000    0.0000 C   0  0  0  0  0  0  0  0  0  0  0  0
   20.7900  -18.9000    0.0000 C   0  0  0  0  0  0  0  0  0  0  0  0
  1  2  1  0
  1  3  1  0
  2  4  1  0
  4  5  1  0
  5  6  2  0
  6  7  1  0
  7  8  2  0
  8  9  1  0
  9 10  2  0
  5 10  1  0
  2 11  2  0
  3 12  2  0
 12 13  1  0
 13 14  2  0
 14 15  1  0
 15 16  2  0
  3 16  1  0
 13 17  1  0
 17 18  1  0
 18 19  1  0
 14 19  1  0
 18 20  1  0
 18 21  1  0
 22 23  1  0
 23  1  1  0
  1 22  1  0
  6 24  1  0
  8 25  1  0
 25 26  1  0
 26 27  2  0
  9 27  1  0
 26 28  1  0
 28 29  1  0
 29 30  1  0
 25 31  1  0
 31 32  1  0
 32 33  1  6
 32 34  1  0
 34 35  1  0
 28 36  1  0
 28 37  1  0
 38 39  2  0
 39 40  1  0
 40 41  2  0
 41 42  1  0
 42 43  2  0
 38 43  1  0
 41 44  1  0
 44 45  1  0
 45 46  2  0
 46 47  1  0
 42 47  1  0
 45 48  1  0
 48 49  1  0
 49 50  1  0
 48 51  2  0
 44 52  2  0
 50 53  2  0
 53 54  1  0
 54 55  2  0
 55 56  1  0
 56 57  2  0
 50 57  1  0
 57 58  1  0
 58 59  1  0
 58 60  1  0
 58 61  1  0
 54 62  1  0
 55 63  1  0
 63 64  1  0
 63 65  1  0
 63 66  1  0
M  END
