 
     RDKit          2D

128136  0  3  1  0  0  0  0  0999 V2000
   25.7578  -16.0286    0.0000 C   0  0  0  0  0  0  0  0  0  0  0  0
   25.7578  -14.6988    0.0000 C   0  0  0  0  0  0  0  0  0  0  0  0
   26.9476  -16.7286    0.0000 C   0  0  0  0  0  0  0  0  0  0  0  0
   24.6379  -16.6586    0.0000 C   0  0  0  0  0  0  0  0  0  0  0  0
   26.9476  -15.3987    0.0000 C   0  0  0  0  0  0  0  0  0  0  0  0
   24.6379  -14.0688    0.0000 C   0  0  0  0  0  0  0  0  0  0  0  0
   26.9476  -14.0688    0.0000 C   0  0  0  0  0  0  0  0  0  0  0  0
   28.0675  -16.0286    0.0000 C   0  0  0  0  0  0  0  0  0  0  0  0
   26.9476  -17.9885    0.0000 C   0  0  0  0  0  0  0  0  0  0  0  0
   23.3780  -15.3287    0.0000 O   0  0  0  0  0  0  0  0  0  0  0  0
   24.6379  -17.9885    0.0000 C   0  0  0  0  0  0  0  0  0  0  0  0
   29.1874  -15.3987    0.0000 C   0  0  0  0  0  0  0  0  0  0  0  0
   24.6379  -12.7389    0.0000 C   0  0  0  0  0  0  0  0  0  0  0  0
   28.0675  -14.7688    0.0000 C   0  0  0  0  0  0  0  0  0  0  0  0
   26.9476  -12.7389    0.0000 C   0  0  0  0  0  0  0  0  0  0  0  0
   29.1874  -16.7286    0.0000 N   0  0  0  0  0  0  0  0  0  0  0  0
   25.7578  -18.6884    0.0000 C   0  0  0  0  0  0  0  0  0  0  0  0
   23.5880  -18.6884    0.0000 O   0  0  0  0  0  0  0  0  0  0  0  0
   25.8277  -12.1090    0.0000 C   0  0  0  0  0  0  0  0  0  0  0  0
   23.5880  -12.1090    0.0000 O   0  0  0  0  0  0  0  0  0  0  0  0
   22.3981  -12.7389    0.0000 C   0  0  0  0  0  0  0  0  0  0  0  0
   30.5873  -16.7286    0.0000 C   0  0  0  0  0  0  0  0  0  0  0  0
   34.5301  -13.5792    0.0000 O   0  0  0  0  0  0  0  0  0  0  0  0
   35.7425  -14.2791    0.0000 C   0  0  0  0  0  0  0  0  0  0  0  0
   36.9549  -13.5792    0.0000 C   0  0  0  0  0  0  0  0  0  0  0  0
   38.1672  -14.2791    0.0000 C   0  0  0  0  0  0  0  0  0  0  0  0
   39.3797  -13.5792    0.0000 C   0  0  0  0  0  0  0  0  0  0  0  0
   40.5920  -14.2791    0.0000 O   0  0  0  0  0  0  0  0  0  0  0  0
   35.7425  -15.6789    0.0000 O   0  0  0  0  0  0  0  0  0  0  0  0
   36.9549  -12.1792    0.0000 O   0  0  0  0  0  0  0  0  0  0  0  0
   38.1672  -15.6790    0.0000 O   0  0  0  0  0  0  0  0  0  0  0  0
   39.3797  -12.1795    0.0000 O   0  0  0  0  0  0  0  0  0  0  0  0
   38.2200  -18.0600    0.0000 O   0  0  0  0  0  0  0  0  0  0  0  0
   25.7578  -16.0286    0.0000 C   0  0  0  0  0  0  0  0  0  0  0  0
   25.7578  -14.6988    0.0000 C   0  0  0  0  0  0  0  0  0  0  0  0
   24.6379  -14.0688    0.0000 C   0  0  0  0  0  0  0  0  0  0  0  0
   24.6379  -12.7389    0.0000 C   0  0  0  0  0  0  0  0  0  0  0  0
   25.8277  -12.1090    0.0000 C   0  0  0  0  0  0  0  0  0  0  0  0
   26.9476  -12.7389    0.0000 C   0  0  0  0  0  0  0  0  0  0  0  0
   26.9476  -14.0688    0.0000 C   0  0  0  0  0  0  0  0  0  0  0  0
   28.0675  -14.7688    0.0000 C   0  0  0  0  0  0  0  0  0  0  0  0
   28.0675  -16.0286    0.0000 C   0  0  0  0  0  0  0  0  0  0  0  0
   26.9476  -16.7286    0.0000 C   0  0  0  0  0  0  0  0  0  0  0  0
   26.9476  -17.9885    0.0000 C   0  0  0  0  0  0  0  0  0  0  0  0
   25.7578  -18.6884    0.0000 C   0  0  0  0  0  0  0  0  0  0  0  0
   24.6379  -17.9885    0.0000 C   0  0  0  0  0  0  0  0  0  0  0  0
   24.6379  -16.6586    0.0000 C   0  0  0  0  0  0  0  0  0  0  0  0
   23.3780  -15.3287    0.0000 O   0  0  0  0  0  0  0  0  0  0  0  0
   23.5880  -18.6884    0.0000 O   0  0  0  0  0  0  0  0  0  0  0  0
   29.1874  -16.7286    0.0000 N   0  0  0  0  0  0  0  0  0  0  0  0
   29.1874  -15.3987    0.0000 C   0  0  0  0  0  0  0  0  0  0  0  0
   26.9476  -15.3987    0.0000 C   0  0  0  0  0  0  0  0  0  0  0  0
   30.5873  -16.7286    0.0000 C   0  0  0  0  0  0  0  0  0  0  0  0
   23.5880  -12.1090    0.0000 O   0  0  0  0  0  0  0  0  0  0  0  0
   22.3981  -12.7389    0.0000 C   0  0  0  0  0  0  0  0  0  0  0  0
   34.5301  -13.5792    0.0000 O   0  0  0  0  0  0  0  0  0  0  0  0
   35.7425  -14.2791    0.0000 C   0  0  0  0  0  0  0  0  0  0  0  0
   36.9549  -13.5792    0.0000 C   0  0  0  0  0  0  0  0  0  0  0  0
   38.1672  -14.2791    0.0000 C   0  0  0  0  0  0  0  0  0  0  0  0
   39.3797  -13.5792    0.0000 C   0  0  0  0  0  0  0  0  0  0  0  0
   40.5920  -14.2791    0.0000 O   0  0  0  0  0  0  0  0  0  0  0  0
   39.3797  -12.1795    0.0000 O   0  0  0  0  0  0  0  0  0  0  0  0
   38.1672  -15.6790    0.0000 O   0  0  0  0  0  0  0  0  0  0  0  0
   36.9549  -12.1792    0.0000 O   0  0  0  0  0  0  0  0  0  0  0  0
   35.7425  -15.6789    0.0000 O   0  0  0  0  0  0  0  0  0  0  0  0
   38.2200  -18.0600    0.0000 O   0  0  0  0  0  0  0  0  0  0  0  0
   38.2200  -18.0600    0.0000 O   0  0  0  0  0  0  0  0  0  0  0  0
   38.2200  -18.0600    0.0000 O   0  0  0  0  0  0  0  0  0  0  0  0
   38.2200  -18.0600    0.0000 O   0  0  0  0  0  0  0  0  0  0  0  0
   23.4500  -18.5500    0.0000 C   0  0  0  0  0  0  0  0  0  0  0  0
   23.4500  -17.2200    0.0000 C   0  0  0  0  0  0  0  0  0  0  0  0
   24.6400  -19.2500    0.0000 C   0  0  0  0  0  0  0  0  0  0  0  0
   22.3300  -19.1800    0.0000 C   0  0  0  0  0  0  0  0  0  0  0  0
   24.6400  -17.9200    0.0000 C   0  0  0  0  0  0  0  0  0  0  0  0
   22.3300  -16.5900    0.0000 C   0  0  0  0  0  0  0  0  0  0  0  0
   24.6400  -16.5900    0.0000 C   0  0  0  0  0  0  0  0  0  0  0  0
   25.7600  -18.5500    0.0000 C   0  0  0  0  0  0  0  0  0  0  0  0
   24.6400  -20.5100    0.0000 C   0  0  0  0  0  0  0  0  0  0  0  0
   21.0700  -17.8500    0.0000 O   0  0  0  0  0  0  0  0  0  0  0  0
   22.3300  -20.5100    0.0000 C   0  0  0  0  0  0  0  0  0  0  0  0
   26.8800  -17.9200    0.0000 C   0  0  0  0  0  0  0  0  0  0  0  0
   22.3300  -15.2600    0.0000 C   0  0  0  0  0  0  0  0  0  0  0  0
   25.7600  -17.2900    0.0000 C   0  0  0  0  0  0  0  0  0  0  0  0
   24.6400  -15.2600    0.0000 C   0  0  0  0  0  0  0  0  0  0  0  0
   26.8800  -19.2500    0.0000 N   0  0  0  0  0  0  0  0  0  0  0  0
   23.4500  -21.2100    0.0000 C   0  0  0  0  0  0  0  0  0  0  0  0
   21.2800  -21.2100    0.0000 O   0  0  0  0  0  0  0  0  0  0  0  0
   23.5200  -14.6300    0.0000 C   0  0  0  0  0  0  0  0  0  0  0  0
   21.2800  -14.6300    0.0000 O   0  0  0  0  0  0  0  0  0  0  0  0
   20.0900  -15.2600    0.0000 C   0  0  0  0  0  0  0  0  0  0  0  0
   28.2800  -19.2500    0.0000 C   0  0  0  0  0  0  0  0  0  0  0  0
   23.3800  -18.5500    0.0000 C   0  0  0  0  0  0  0  0  0  0  0  0
   23.3800  -17.2200    0.0000 C   0  0  0  0  0  0  0  0  0  0  0  0
   24.5700  -19.2500    0.0000 C   0  0  0  0  0  0  0  0  0  0  0  0
   22.2600  -19.1800    0.0000 C   0  0  0  0  0  0  0  0  0  0  0  0
   24.5700  -17.9200    0.0000 C   0  0  0  0  0  0  0  0  0  0  0  0
   22.2600  -16.5900    0.0000 C   0  0  0  0  0  0  0  0  0  0  0  0
   24.5700  -16.5900    0.0000 C   0  0  0  0  0  0  0  0  0  0  0  0
   25.6900  -18.5500    0.0000 C   0  0  0  0  0  0  0  0  0  0  0  0
   24.5700  -20.5100    0.0000 C   0  0  0  0  0  0  0  0  0  0  0  0
   21.0000  -17.8500    0.0000 O   0  0  0  0  0  0  0  0  0  0  0  0
   22.2600  -20.5100    0.0000 C   0  0  0  0  0  0  0  0  0  0  0  0
   26.8800  -17.9200    0.0000 C   0  0  0  0  0  0  0  0  0  0  0  0
   22.2600  -15.2600    0.0000 C   0  0  0  0  0  0  0  0  0  0  0  0
   25.6900  -17.2900    0.0000 C   0  0  0  0  0  0  0  0  0  0  0  0
   24.5700  -15.2600    0.0000 C   0  0  0  0  0  0  0  0  0  0  0  0
   26.8800  -19.2500    0.0000 N   0  0  0  0  0  0  0  0  0  0  0  0
   23.3800  -21.2100    0.0000 C   0  0  0  0  0  0  0  0  0  0  0  0
   21.2100  -21.2100    0.0000 O   0  0  0  0  0  0  0  0  0  0  0  0
   23.4500  -14.6300    0.0000 C   0  0  0  0  0  0  0  0  0  0  0  0
   21.2100  -14.6300    0.0000 O   0  0  0  0  0  0  0  0  0  0  0  0
   20.0200  -15.2600    0.0000 C   0  0  0  0  0  0  0  0  0  0  0  0
   28.2800  -19.2500    0.0000 C   0  0  0  0  0  0  0  0  0  0  0  0
   31.4300  -17.4300    0.0000 Cl  0  0  0  0  0  0  0  0  0  0  0  0
   24.2200  -19.6000    0.0000 C   0  0  0  0  0  0  0  0  0  0  0  0
   23.0300  -18.9000    0.0000 C   0  0  0  0  0  0  0  0  0  0  0  0
   25.4100  -18.9000    0.0000 O   0  0  0  0  0  0  0  0  0  0  0  0
   24.2200  -21.0000    0.0000 C   0  0  0  0  0  0  0  0  0  0  0  0
   21.7700  -19.6000    0.0000 C   0  0  0  0  0  0  0  0  0  0  0  0
   23.0300  -17.5000    0.0000 O   0  0  0  0  0  0  0  0  0  0  0  0
   26.6000  -19.6000    0.0000 C   0  0  0  0  0  0  0  0  0  0  0  0
   23.0300  -21.7000    0.0000 C   0  0  0  0  0  0  0  0  0  0  0  0
   21.7700  -21.0000    0.0000 C   0  0  0  0  0  0  0  0  0  0  0  0
   21.7700  -16.8000    0.0000 C   0  0  0  0  0  0  0  0  0  0  0  0
   27.8600  -18.9000    0.0000 C   0  0  0  0  0  0  0  0  0  0  0  0
   29.0500  -19.6000    0.0000 C   0  0  0  0  0  0  0  0  0  0  0  0
   27.8600  -17.5000    0.0000 O   0  0  0  0  0  0  0  0  0  0  0  0
   30.2400  -18.9000    0.0000 O   0  0  0  0  0  0  0  0  0  0  0  0
  1  2  1  0
  1  3  1  0
  1  4  1  0
  1  5  1  1
  2  6  2  0
  2  7  1  0
  3  8  1  0
  3  9  1  6
  4 10  1  6
  4 11  1  0
  5 12  1  0
  6 13  1  0
  7 14  1  0
  7 15  2  0
  8 16  1  0
  9 17  1  0
 11 18  2  0
 13 19  2  0
 13 20  1  0
 20 21  1  0
  6 10  1  0
  8 14  1  1
 11 17  1  0
 12 16  1  0
 15 19  1  0
 16 22  1  0
 34 35  1  0
 34 43  1  0
 34 47  1  0
 34 52  1  1
 35 36  1  0
 35 40  2  0
 43 42  1  0
 43 44  1  6
 47 48  1  6
 47 46  1  0
 52 51  1  0
 36 37  2  0
 40 41  1  0
 40 39  1  0
 42 50  1  0
 44 45  1  0
 46 49  2  0
 37 38  1  0
 37 54  1  0
 54 55  1  0
 36 48  1  0
 42 41  1  1
 46 45  1  0
 51 50  1  0
 39 38  2  0
 50 53  1  0
 23 24  1  0
 24 25  1  0
 25 26  1  0
 26 27  1  0
 27 28  1  0
 24 29  2  0
 25 30  1  6
 26 31  1  6
 27 32  2  0
 56 57  1  0
 57 58  1  0
 58 59  1  0
 59 60  1  0
 60 61  1  0
 57 65  2  0
 58 64  1  6
 59 63  1  6
 60 62  2  0
 70 71  1  0
 70 72  1  0
 70 73  1  0
 70 74  1  1
 71 75  2  0
 71 76  1  0
 72 77  1  0
 72 78  1  6
 73 79  1  6
 73 80  1  0
 74 81  1  0
 75 82  1  0
 76 83  1  0
 76 84  2  0
 77 85  1  0
 78 86  1  0
 80 87  2  0
 82 88  2  0
 82 89  1  0
 89 90  1  0
 75 79  1  0
 77 83  1  1
 80 86  1  0
 81 85  1  0
 84 88  1  0
 85 91  1  0
 92 93  1  0
 92 94  1  0
 92 95  1  0
 92 96  1  1
 93 97  2  0
 93 98  1  0
 94 99  1  0
 94100  1  6
 95101  1  6
 95102  1  0
 96103  1  0
 97104  1  0
 98105  1  0
 98106  2  0
 99107  1  0
100108  1  0
102109  2  0
104110  2  0
104111  1  0
111112  1  0
 97101  1  0
 99105  1  1
102108  1  0
103107  1  0
106110  1  0
107113  1  0
115116  2  0
115117  1  0
115118  1  0
116119  1  0
116120  1  0
117121  1  0
118122  2  0
119123  2  0
120124  1  0
121125  1  0
125126  1  0
125127  1  0
126128  1  0
122123  1  0
M  STY  3   1 MUL   2 MUL   3 MUL
M  SLB  3   1   1   2   2   3   3
M  SCN  3   1 HT    2 HT    3 HT 
M  SAL   1 15   1   2   3   4   5   6   7   8   9  10  11  12  13  14  15
M  SAL   1 15  16  17  18  19  20  21  22  34  35  36  37  38  39  40  41
M  SAL   1 14  42  43  44  45  46  47  48  49  50  51  52  53  54  55
M  SPA   1 15   1   2   6  13  19  15   7  14   8   3   9  17  11   4  10
M  SPA   1  7  18  16  12   5  22  20  21
M  SDI   1  4   20.5100  -19.2500   20.5100  -11.2700
M  SDI   1  4   32.1300  -11.2700   32.1300  -19.2500
M  SMT   1 2
M  SAL   2 15  23  24  25  26  27  28  29  30  31  32  56  57  58  59  60
M  SAL   2  5  61  62  63  64  65
M  SPA   2 10  23  24  25  26  27  28  32  31  30  29
M  SDI   2  4   33.2500  -16.2400   33.2500  -11.3400
M  SDI   2  4   41.8600  -11.3400   41.8600  -16.2400
M  SMT   2 2
M  SAL   3  5  33  66  67  68  69
M  SPA   3  1  33
M  SDI   3  4   36.1900  -19.0400   36.1900  -17.1500
M  SDI   3  4   38.9200  -17.1500   38.9200  -19.0400
M  SMT   3 5
M  END
