 
     RDKit          2D

156167  0  0  1  0  0  0  0  0999 V2000
   19.6000  -28.4200    0.0000 C   0  0  0  0  0  0  0  0  0  0  0  0
   19.6000  -29.7500    0.0000 C   0  0  0  0  0  0  0  0  0  0  0  0
   20.7900  -30.4500    0.0000 C   0  0  0  0  0  0  0  0  0  0  0  0
   21.9100  -29.7500    0.0000 C   0  0  0  0  0  0  0  0  0  0  0  0
   21.9100  -28.4200    0.0000 C   0  0  0  0  0  0  0  0  0  0  0  0
   20.7900  -27.7200    0.0000 C   0  0  0  0  0  0  0  0  0  0  0  0
   23.1000  -30.4500    0.0000 C   0  0  0  0  0  0  0  0  0  0  0  0
   24.3600  -29.7500    0.0000 C   0  0  0  0  0  0  0  0  0  0  0  0
   24.3600  -28.4200    0.0000 C   0  0  0  0  0  0  0  0  0  0  0  0
   23.1000  -27.7200    0.0000 C   0  0  0  0  0  0  0  0  0  0  0  0
   25.4100  -27.7200    0.0000 C   0  0  0  0  0  0  0  0  0  0  0  0
   25.4100  -26.3900    0.0000 C   0  0  0  0  0  0  0  0  0  0  0  0
   24.3600  -25.6900    0.0000 C   0  0  0  0  0  0  0  0  0  0  0  0
   23.1000  -26.3900    0.0000 C   0  0  0  0  0  0  0  0  0  0  0  0
   27.7200  -27.7200    0.0000 C   0  0  0  0  0  0  0  0  0  0  0  0
   27.7200  -26.3900    0.0000 C   0  0  0  0  0  0  0  0  0  0  0  0
   26.5300  -25.6900    0.0000 C   0  0  0  0  0  0  0  0  0  0  0  0
   18.4100  -30.4500    0.0000 O   0  0  0  0  0  0  0  0  0  0  0  0
   21.9100  -27.0200    0.0000 C   0  0  0  0  0  0  0  0  0  0  0  0
   23.1000  -29.0500    0.0000 F   0  0  0  0  0  0  0  0  0  0  0  0
   21.9100  -25.6900    0.0000 O   0  0  0  0  0  0  0  0  0  0  0  0
   25.4100  -24.9900    0.0000 C   0  0  0  0  0  0  0  0  0  0  0  0
   27.9300  -24.7800    0.0000 O   0  0  0  0  0  0  0  0  0  0  0  0
   29.1200  -26.3900    0.0000 C   0  0  0  0  0  0  0  0  0  0  0  0
   23.1000  -31.8500    0.0000 F   0  0  0  0  0  0  0  0  0  0  0  0
   26.5300  -24.2900    0.0000 C   0  0  0  0  0  0  0  0  0  0  0  0
   27.7900  -23.5900    0.0000 O   0  0  0  0  0  0  0  0  0  0  0  0
   25.2700  -23.5900    0.0000 S   0  0  0  0  0  0  0  0  0  0  0  0
   24.0800  -24.2900    0.0000 C   0  0  0  0  0  0  0  0  0  0  0  0
   22.8900  -23.5900    0.0000 F   0  0  0  0  0  0  0  0  0  0  0  0
   29.1200  -24.0800    0.0000 C   0  0  0  0  0  0  0  0  0  0  0  0
   30.3100  -24.7800    0.0000 C   0  0  0  0  0  0  0  0  0  0  0  0
   29.1200  -22.6800    0.0000 O   0  0  0  0  0  0  0  0  0  0  0  0
   30.8000  -26.1100    0.0000 C   0  0  0  0  0  0  0  0  0  0  0  0
   32.2000  -26.1100    0.0000 C   0  0  0  0  0  0  0  0  0  0  0  0
   32.6200  -24.7800    0.0000 C   0  0  0  0  0  0  0  0  0  0  0  0
   31.4300  -23.9400    0.0000 O   0  0  0  0  0  0  0  0  0  0  0  0
   26.1100  -23.1000    0.0000 C   0  0  0  0  0  0  0  0  0  0  0  0
   24.8500  -22.4000    0.0000 C   0  0  0  0  0  0  0  0  0  0  0  0
   26.1100  -24.6400    0.0000 C   0  0  0  0  0  0  0  0  0  0  0  0
   23.5900  -23.1000    0.0000 C   0  0  0  0  0  0  0  0  0  0  0  0
   25.2700  -23.7300    0.0000 C   0  0  0  0  0  0  0  0  0  0  0  0
   24.8500  -25.3400    0.0000 N   0  0  0  0  0  0  0  0  0  0  0  0
   23.5900  -24.5700    0.0000 C   0  0  0  0  0  0  0  0  0  0  0  0
   24.4300  -23.9400    0.0000 C   0  0  0  0  0  0  0  0  0  0  0  0
   24.8500  -26.7400    0.0000 C   0  0  0  0  0  0  0  0  0  0  0  0
   23.6600  -27.4400    0.0000 C   0  0  0  0  0  0  0  0  0  0  0  0
   22.4000  -26.7400    0.0000 O   0  0  0  0  0  0  0  0  0  0  0  0
   21.2100  -27.4400    0.0000 C   0  0  0  0  0  0  0  0  0  0  0  0
   20.0200  -26.7400    0.0000 C   0  0  0  0  0  0  0  0  0  0  0  0
   20.0200  -25.3400    0.0000 C   0  0  0  0  0  0  0  0  0  0  0  0
   18.8300  -24.6400    0.0000 C   0  0  0  0  0  0  0  0  0  0  0  0
   17.5700  -25.3400    0.0000 C   0  0  0  0  0  0  0  0  0  0  0  0
   17.5700  -26.7400    0.0000 C   0  0  0  0  0  0  0  0  0  0  0  0
   18.8300  -27.4400    0.0000 C   0  0  0  0  0  0  0  0  0  0  0  0
   24.8500  -21.0000    0.0000 C   0  0  0  0  0  0  0  0  0  0  0  0
   26.1100  -20.3000    0.0000 C   0  0  0  0  0  0  0  0  0  0  0  0
   23.6600  -20.3000    0.0000 C   0  0  0  0  0  0  0  0  0  0  0  0
   26.1100  -21.7000    0.0000 O   0  0  0  0  0  0  0  0  0  0  0  0
   27.3000  -21.0000    0.0000 C   0  0  0  0  0  0  0  0  0  0  0  0
   28.4900  -20.3000    0.0000 C   0  0  0  0  0  0  0  0  0  0  0  0
   28.4900  -18.9000    0.0000 C   0  0  0  0  0  0  0  0  0  0  0  0
   27.3000  -18.2000    0.0000 C   0  0  0  0  0  0  0  0  0  0  0  0
   26.1100  -18.9000    0.0000 C   0  0  0  0  0  0  0  0  0  0  0  0
   23.6600  -18.9000    0.0000 C   0  0  0  0  0  0  0  0  0  0  0  0
   22.4000  -18.2000    0.0000 C   0  0  0  0  0  0  0  0  0  0  0  0
   21.2100  -18.9000    0.0000 C   0  0  0  0  0  0  0  0  0  0  0  0
   21.2100  -20.3000    0.0000 C   0  0  0  0  0  0  0  0  0  0  0  0
   22.4000  -21.0000    0.0000 C   0  0  0  0  0  0  0  0  0  0  0  0
   28.1400  -26.8100    0.0000 Br  0  0  0  0  0  0  0  0  0  0  0  0
    8.4000  -13.4400    0.0000 C   0  0  0  0  0  0  0  0  0  0  0  0
    8.4000  -11.9700    0.0000 C   0  0  0  0  0  0  0  0  0  0  0  0
    9.6600  -11.2700    0.0000 C   0  0  0  0  0  0  0  0  0  0  0  0
   10.8500  -11.9700    0.0000 C   0  0  0  0  0  0  0  0  0  0  0  0
   10.8500  -13.4400    0.0000 C   0  0  0  0  0  0  0  0  0  0  0  0
    9.6600  -14.1400    0.0000 C   0  0  0  0  0  0  0  0  0  0  0  0
   12.0400  -14.1400    0.0000 C   0  0  0  0  0  0  0  0  0  0  0  0
   13.2300  -13.4400    0.0000 C   0  0  0  0  0  0  0  0  0  0  0  0
   14.4200  -14.1400    0.0000 N   0  0  0  0  0  0  0  0  0  0  0  0
   15.6800  -13.4400    0.0000 C   0  0  0  0  0  0  0  0  0  0  0  0
   16.8700  -14.1400    0.0000 C   0  0  0  0  0  0  0  0  0  0  0  0
   18.0600  -13.4400    0.0000 C   0  0  0  0  0  0  0  0  0  0  0  0
   19.2500  -14.1400    0.0000 C   0  0  0  0  0  0  0  0  0  0  0  0
   20.4400  -13.4400    0.0000 C   0  0  0  0  0  0  0  0  0  0  0  0
   21.6300  -14.1400    0.0000 C   0  0  0  0  0  0  0  0  0  0  0  0
   22.8200  -13.4400    0.0000 O   0  0  0  0  0  0  0  0  0  0  0  0
   12.0400  -15.5400    0.0000 O   0  0  0  0  0  0  0  0  0  0  0  0
   24.0800  -14.1400    0.0000 C   0  0  0  0  0  0  0  0  0  0  0  0
   25.2700  -13.4400    0.0000 C   0  0  0  0  0  0  0  0  0  0  0  0
   26.4600  -14.1400    0.0000 O   0  0  0  0  0  0  0  0  0  0  0  0
   27.6500  -13.4400    0.0000 C   0  0  0  0  0  0  0  0  0  0  0  0
   28.8400  -14.1400    0.0000 C   0  0  0  0  0  0  0  0  0  0  0  0
   30.0300  -13.4400    0.0000 C   0  0  0  0  0  0  0  0  0  0  0  0
   31.2900  -14.1400    0.0000 C   0  0  0  0  0  0  0  0  0  0  0  0
   31.2900  -15.5400    0.0000 C   0  0  0  0  0  0  0  0  0  0  0  0
   30.1000  -16.2400    0.0000 C   0  0  0  0  0  0  0  0  0  0  0  0
   28.8400  -15.5400    0.0000 C   0  0  0  0  0  0  0  0  0  0  0  0
   27.5800  -16.2400    0.0000 Cl  0  0  0  0  0  0  0  0  0  0  0  0
   30.0300  -11.9700    0.0000 Cl  0  0  0  0  0  0  0  0  0  0  0  0
    7.2100  -14.1400    0.0000 C   0  0  0  0  0  0  0  0  0  0  0  0
    6.0200  -13.4400    0.0000 O   0  0  0  0  0  0  0  0  0  0  0  0
    7.2100  -11.2700    0.0000 O   0  0  0  0  0  0  0  0  0  0  0  0
   19.1800  -20.0900    0.0000 C   0  0  0  0  0  0  0  0  0  0  0  0
   20.5800  -20.0900    0.0000 C   0  0  0  0  0  0  0  0  0  0  0  0
   21.9800  -20.0900    0.0000 C   0  0  0  0  0  0  0  0  0  0  0  0
   20.5800  -18.6900    0.0000 C   0  0  0  0  0  0  0  0  0  0  0  0
   20.5800  -21.4900    0.0000 C   0  0  0  0  0  0  0  0  0  0  0  0
   19.3900  -22.1900    0.0000 O   0  0  0  0  0  0  0  0  0  0  0  0
   21.8400  -22.1900    0.0000 O   0  0  0  0  0  0  0  0  0  0  0  0
   21.8400  -17.9900    0.0000 C   0  0  0  0  0  0  0  0  0  0  0  0
   21.8400  -16.5900    0.0000 C   0  0  0  0  0  0  0  0  0  0  0  0
   20.5800  -15.8900    0.0000 C   0  0  0  0  0  0  0  0  0  0  0  0
   19.3900  -16.5900    0.0000 C   0  0  0  0  0  0  0  0  0  0  0  0
   19.3900  -17.9900    0.0000 C   0  0  0  0  0  0  0  0  0  0  0  0
   22.6800  -21.2800    0.0000 C   0  0  0  0  0  0  0  0  0  0  0  0
   24.0800  -21.2800    0.0000 C   0  0  0  0  0  0  0  0  0  0  0  0
   24.7800  -20.0900    0.0000 C   0  0  0  0  0  0  0  0  0  0  0  0
   24.0800  -18.9000    0.0000 C   0  0  0  0  0  0  0  0  0  0  0  0
   22.6800  -18.9000    0.0000 C   0  0  0  0  0  0  0  0  0  0  0  0
   18.4800  -18.9000    0.0000 C   0  0  0  0  0  0  0  0  0  0  0  0
   17.0800  -18.9000    0.0000 C   0  0  0  0  0  0  0  0  0  0  0  0
   16.3800  -20.0900    0.0000 C   0  0  0  0  0  0  0  0  0  0  0  0
   17.0800  -21.2800    0.0000 C   0  0  0  0  0  0  0  0  0  0  0  0
   18.4800  -21.2800    0.0000 C   0  0  0  0  0  0  0  0  0  0  0  0
    8.3300  -15.8900    0.0000 C   0  0  0  0  0  0  0  0  0  0  0  0
    8.3300  -14.4200    0.0000 C   0  0  0  0  0  0  0  0  0  0  0  0
    9.5900  -13.7200    0.0000 C   0  0  0  0  0  0  0  0  0  0  0  0
   10.7800  -14.4200    0.0000 C   0  0  0  0  0  0  0  0  0  0  0  0
   10.7800  -15.8900    0.0000 C   0  0  0  0  0  0  0  0  0  0  0  0
    9.5900  -16.5900    0.0000 C   0  0  0  0  0  0  0  0  0  0  0  0
   12.0400  -16.5900    0.0000 C   0  0  0  0  0  0  0  0  0  0  0  0
   13.2300  -15.8900    0.0000 C   0  0  0  0  0  0  0  0  0  0  0  0
   14.4200  -16.5900    0.0000 N   0  0  0  0  0  0  0  0  0  0  0  0
   15.6800  -15.8900    0.0000 C   0  0  0  0  0  0  0  0  0  0  0  0
   16.8700  -16.5900    0.0000 C   0  0  0  0  0  0  0  0  0  0  0  0
   18.0600  -15.8900    0.0000 C   0  0  0  0  0  0  0  0  0  0  0  0
   19.2500  -16.5900    0.0000 C   0  0  0  0  0  0  0  0  0  0  0  0
   20.4400  -15.8900    0.0000 C   0  0  0  0  0  0  0  0  0  0  0  0
   21.6300  -16.5900    0.0000 C   0  0  0  0  0  0  0  0  0  0  0  0
   22.8200  -15.8900    0.0000 O   0  0  0  0  0  0  0  0  0  0  0  0
   12.0400  -17.9900    0.0000 O   0  0  0  0  0  0  0  0  0  0  0  0
   24.0800  -16.5900    0.0000 C   0  0  0  0  0  0  0  0  0  0  0  0
   25.2700  -15.8900    0.0000 C   0  0  0  0  0  0  0  0  0  0  0  0
   26.4600  -16.5900    0.0000 O   0  0  0  0  0  0  0  0  0  0  0  0
   27.6500  -15.8900    0.0000 C   0  0  0  0  0  0  0  0  0  0  0  0
   28.8400  -16.5900    0.0000 C   0  0  0  0  0  0  0  0  0  0  0  0
   30.0300  -15.8900    0.0000 C   0  0  0  0  0  0  0  0  0  0  0  0
   31.2900  -16.5900    0.0000 C   0  0  0  0  0  0  0  0  0  0  0  0
   31.2900  -17.9900    0.0000 C   0  0  0  0  0  0  0  0  0  0  0  0
   30.1000  -18.6900    0.0000 C   0  0  0  0  0  0  0  0  0  0  0  0
   28.8400  -17.9900    0.0000 C   0  0  0  0  0  0  0  0  0  0  0  0
   27.5800  -18.6900    0.0000 Cl  0  0  0  0  0  0  0  0  0  0  0  0
   30.0300  -14.4200    0.0000 Cl  0  0  0  0  0  0  0  0  0  0  0  0
    7.1400  -16.5900    0.0000 C   0  0  0  0  0  0  0  0  0  0  0  0
    5.9500  -15.8900    0.0000 O   0  0  0  0  0  0  0  0  0  0  0  0
    7.1400  -13.7200    0.0000 O   0  0  0  0  0  0  0  0  0  0  0  0
  1  2  1  0
  2  3  1  0
  3  4  2  0
  4  5  1  0
  5  6  1  0
  1  6  2  0
  4  7  1  0
  7  8  1  0
  9  8  1  6
  9 10  1  0
  5 10  1  0
  9 11  1  0
 11 12  1  0
 12 13  1  0
 13 14  1  0
 10 14  1  0
 11 15  1  1
 15 16  1  0
 16 17  1  0
 12 17  1  0
  2 18  2  0
  5 19  1  1
 10 20  1  6
 14 21  1  1
 12 22  1  1
 17 23  1  6
 16 24  1  6
  7 25  1  6
 17 26  1  0
 26 27  2  0
 26 28  1  0
 28 29  1  0
 29 30  1  0
 31 32  1  0
 31 23  1  0
 31 33  2  0
 32 34  2  0
 34 35  1  0
 35 36  2  0
 36 37  1  0
 32 37  1  0
 38 39  1  0
 38 40  1  0
 39 41  1  0
 39 42  1  0
 40 43  1  0
 41 44  1  0
 42 45  1  0
 43 44  1  0
 43 45  1  0
 43 46  1  0
 46 47  1  0
 47 48  1  0
 48 49  1  0
 49 50  1  0
 50 51  2  0
 51 52  1  0
 52 53  2  0
 53 54  1  0
 54 55  2  0
 50 55  1  0
 39 56  1  0
 56 57  1  0
 56 58  1  0
 56 59  1  0
 57 60  2  0
 60 61  1  0
 61 62  2  0
 62 63  1  0
 63 64  2  0
 57 64  1  0
 58 65  2  0
 65 66  1  0
 66 67  2  0
 67 68  1  0
 68 69  2  0
 58 69  1  0
 71 72  2  0
 72 73  1  0
 73 74  2  0
 74 75  1  0
 75 76  2  0
 71 76  1  0
 75 77  1  0
 77 78  1  0
 78 79  1  0
 79 80  1  0
 80 81  1  0
 81 82  1  0
 82 83  1  0
 83 84  1  0
 84 85  1  0
 85 86  1  0
 77 87  1  6
 86 88  1  0
 88 89  1  0
 89 90  1  0
 90 91  1  0
 91 92  1  0
 92 93  2  0
 93 94  1  0
 94 95  2  0
 95 96  1  0
 96 97  2  0
 92 97  1  0
 97 98  1  0
 93 99  1  0
 71100  1  0
100101  1  0
 72102  1  0
103104  1  0
104105  1  0
104106  1  0
104107  1  0
107108  2  0
107109  1  0
106110  2  0
110111  1  0
111112  2  0
112113  1  0
113114  2  0
106114  1  0
105115  2  0
115116  1  0
116117  2  0
117118  1  0
118119  2  0
105119  1  0
103120  2  0
120121  1  0
121122  2  0
122123  1  0
123124  2  0
103124  1  0
125126  2  0
126127  1  0
127128  2  0
128129  1  0
129130  2  0
125130  1  0
129131  1  0
131132  1  0
132133  1  0
133134  1  0
134135  1  0
135136  1  0
136137  1  0
137138  1  0
138139  1  0
139140  1  0
131141  1  6
140142  1  0
142143  1  0
143144  1  0
144145  1  0
145146  1  0
146147  2  0
147148  1  0
148149  2  0
149150  1  0
150151  2  0
146151  1  0
151152  1  0
147153  1  0
125154  1  0
154155  1  0
126156  1  0
M  CHG  2  43   1  70  -1
M  END
