 
     RDKit          2D

 58 63  0  0  0  0  0  0  0  0999 V2000
   21.5369  -16.2638    0.0000 C   0  0  0  0  0  0  0  0  0  0  0  0
   22.7985  -16.9648    0.0000 N   0  0  0  0  0  0  0  0  0  0  0  0
   21.5369  -14.8622    0.0000 C   0  0  0  0  0  0  0  0  0  0  0  0
   20.3688  -16.9648    0.0000 C   0  0  0  0  0  0  0  0  0  0  0  0
   22.7984  -18.3665    0.0000 C   0  0  0  0  0  0  0  0  0  0  0  0
   23.9665  -16.2171    0.0000 C   0  0  0  0  0  0  0  0  0  0  0  0
   22.7518  -14.1613    0.0000 C   0  0  0  0  0  0  0  0  0  0  0  0
   20.3221  -14.1613    0.0000 C   0  0  0  0  0  0  0  0  0  0  0  0
   19.1539  -16.2638    0.0000 C   0  0  0  0  0  0  0  0  0  0  0  0
   23.4993  -19.5812    0.0000 C   0  0  0  0  0  0  0  0  0  0  0  0
   22.0975  -19.5812    0.0000 C   0  0  0  0  0  0  0  0  0  0  0  0
   23.9665  -14.8622    0.0000 C   0  0  0  0  0  0  0  0  0  0  0  0
   22.7518  -12.7596    0.0000 O   0  0  0  0  0  0  0  0  0  0  0  0
   19.1539  -14.8622    0.0000 C   0  0  0  0  0  0  0  0  0  0  0  0
   25.1813  -14.1613    0.0000 C   0  0  0  0  0  0  0  0  0  0  0  0
   17.8924  -14.1613    0.0000 F   0  0  0  0  0  0  0  0  0  0  0  0
   26.3962  -14.8622    0.0000 O   0  0  0  0  0  0  0  0  0  0  0  0
   25.1813  -12.7596    0.0000 O   0  0  0  0  0  0  0  0  0  0  0  0
   17.9391  -17.0115    0.0000 N   0  0  0  0  0  0  0  0  0  0  0  0
   16.7243  -16.3106    0.0000 C   0  0  0  0  0  0  0  0  0  0  0  0
   15.5094  -17.0115    0.0000 C   0  0  0  0  0  0  0  0  0  0  0  0
   15.5094  -18.4132    0.0000 N   0  0  0  0  0  0  0  0  0  0  0  0
   16.7243  -19.1140    0.0000 C   0  0  0  0  0  0  0  0  0  0  0  0
   17.9391  -18.3665    0.0000 C   0  0  0  0  0  0  0  0  0  0  0  0
   30.1710  -15.3771    0.0000 Cl  0  0  0  0  0  0  0  0  0  0  0  0
   33.2977  -15.4005    0.0000 O   0  0  0  0  0  0  0  0  0  0  0  0
   18.6900  -29.1900    0.0000 C   0  0  0  0  0  0  0  0  0  0  0  0
   18.6900  -30.5200    0.0000 C   0  0  0  0  0  0  0  0  0  0  0  0
   19.8800  -31.2200    0.0000 C   0  0  0  0  0  0  0  0  0  0  0  0
   21.0700  -30.5200    0.0000 C   0  0  0  0  0  0  0  0  0  0  0  0
   21.0700  -29.1900    0.0000 C   0  0  0  0  0  0  0  0  0  0  0  0
   19.8800  -28.4900    0.0000 C   0  0  0  0  0  0  0  0  0  0  0  0
   22.2600  -31.2200    0.0000 C   0  0  0  0  0  0  0  0  0  0  0  0
   23.4500  -30.5200    0.0000 C   0  0  0  0  0  0  0  0  0  0  0  0
   23.4500  -29.1900    0.0000 C   0  0  0  0  0  0  0  0  0  0  0  0
   22.2600  -28.4900    0.0000 C   0  0  0  0  0  0  0  0  0  0  0  0
   24.5000  -28.4900    0.0000 C   0  0  0  0  0  0  0  0  0  0  0  0
   24.5000  -27.1600    0.0000 C   0  0  0  0  0  0  0  0  0  0  0  0
   23.4500  -26.4600    0.0000 C   0  0  0  0  0  0  0  0  0  0  0  0
   22.2600  -27.1600    0.0000 C   0  0  0  0  0  0  0  0  0  0  0  0
   26.8800  -28.4900    0.0000 C   0  0  0  0  0  0  0  0  0  0  0  0
   26.8800  -27.1600    0.0000 C   0  0  0  0  0  0  0  0  0  0  0  0
   25.6900  -26.4600    0.0000 C   0  0  0  0  0  0  0  0  0  0  0  0
   17.5700  -31.2200    0.0000 O   0  0  0  0  0  0  0  0  0  0  0  0
   21.0700  -27.7900    0.0000 C   0  0  0  0  0  0  0  0  0  0  0  0
   22.2600  -29.8200    0.0000 F   0  0  0  0  0  0  0  0  0  0  0  0
   21.0700  -26.4600    0.0000 O   0  0  0  0  0  0  0  0  0  0  0  0
   24.5000  -25.7600    0.0000 C   0  0  0  0  0  0  0  0  0  0  0  0
   25.6900  -24.8500    0.0000 C   0  0  0  0  0  0  0  0  0  0  0  0
   27.0900  -25.5500    0.0000 O   0  0  0  0  0  0  0  0  0  0  0  0
   26.8800  -24.2200    0.0000 O   0  0  0  0  0  0  0  0  0  0  0  0
   24.5000  -24.2200    0.0000 C   0  0  0  0  0  0  0  0  0  0  0  0
   23.4500  -24.8500    0.0000 O   0  0  0  0  0  0  0  0  0  0  0  0
   28.2800  -27.1600    0.0000 O   0  0  0  0  0  0  0  0  0  0  0  0
   28.4900  -25.5500    0.0000 C   0  0  0  0  0  0  0  0  0  0  0  0
   29.8900  -25.5500    0.0000 C   0  0  0  0  0  0  0  0  0  0  0  0
   28.4900  -24.2200    0.0000 C   0  0  0  0  0  0  0  0  0  0  0  0
   22.2600  -32.6200    0.0000 F   0  0  0  0  0  0  0  0  0  0  0  0
  3  7  1  0
  3  8  1  0
  4  9  2  0
  5 10  1  0
  5 11  1  0
  6 12  2  0
  7 13  2  0
  8 14  2  0
 12 15  1  0
 14 16  1  0
 15 17  1  0
 15 18  2  0
  7 12  1  0
  9 14  1  0
 10 11  1  0
  9 19  1  0
  1  2  1  0
  1  3  2  0
  1  4  1  0
 19 20  1  0
 20 21  1  0
 21 22  1  0
 22 23  1  0
 23 24  1  0
 24 19  1  0
  2  5  1  0
  2  6  1  0
 27 28  1  0
 28 29  1  0
 29 30  2  0
 30 31  1  0
 31 32  1  0
 27 32  2  0
 30 33  1  0
 33 34  1  0
 35 34  1  6
 35 36  1  0
 31 36  1  0
 35 37  1  0
 37 38  1  0
 38 39  1  0
 39 40  1  0
 36 40  1  0
 37 41  1  1
 42 41  1  6
 42 43  1  0
 38 43  1  0
 28 44  2  0
 31 45  1  1
 36 46  1  6
 40 47  1  1
 38 48  1  1
 43 49  1  1
 43 50  1  0
 49 51  2  0
 49 52  1  0
 52 53  1  0
 42 54  1  0
 50 55  1  0
 55 54  1  0
 55 56  1  0
 55 57  1  0
 33 58  1  6
M  END
