 
     RDKit          2D

 75 77  0  1  1  0  0  0  0  0999 V2000
   40.8797  -17.2898    0.0000 O   0  0  0  0  0  0  0  0  0  0  0  0
   31.1834  -17.6345    0.0000 C   0  0  0  0  0  0  0  0  0  0  0  0
   24.8446  -15.7533    0.0000 C   0  0  0  0  0  0  0  0  0  0  0  0
   24.8446  -17.1109    0.0000 C   0  0  0  0  0  0  0  0  0  0  0  0
   26.1343  -17.1109    0.0000 N   0  0  0  0  0  0  0  0  0  0  0  0
   26.1343  -15.7533    0.0000 C   0  0  0  0  0  0  0  0  0  0  0  0
   27.4240  -17.5181    0.0000 C   0  0  0  0  0  0  0  0  0  0  0  0
   28.2386  -16.4321    0.0000 C   0  0  0  0  0  0  0  0  0  0  0  0
   27.4240  -15.3460    0.0000 C   0  0  0  0  0  0  0  0  0  0  0  0
   27.8314  -18.8078    0.0000 C   0  0  0  0  0  0  0  0  0  0  0  0
   29.1889  -18.8078    0.0000 O   0  0  0  0  0  0  0  0  0  0  0  0
   27.0846  -19.8939    0.0000 O   0  0  0  0  0  0  0  0  0  0  0  0
   30.4892  -16.4321    0.0000 S   0  0  0  0  0  0  0  0  0  0  0  0
   27.8391  -14.0535    0.0000 C   0  0  0  0  0  0  0  0  0  0  0  0
   23.6337  -15.0541    0.0000 C   0  0  0  0  0  0  0  0  0  0  0  0
   22.4227  -15.7533    0.0000 C   0  0  0  0  0  0  0  0  0  0  0  0
   23.6337  -17.8100    0.0000 O   0  0  0  0  0  0  0  0  0  0  0  0
   23.6340  -13.6404    0.0000 O   0  0  0  0  0  0  0  0  0  0  0  0
   30.7741  -18.9693    0.0000 C   0  0  0  0  0  0  0  0  0  0  0  0
   31.9171  -19.7698    0.0000 N   0  0  0  0  0  0  0  0  0  0  0  0
   33.0317  -18.9303    0.0000 C   0  0  0  0  0  0  0  0  0  0  0  0
   32.5774  -17.6107    0.0000 C   0  0  0  0  0  0  0  0  0  0  0  0
   34.4193  -18.9303    0.0000 C   0  0  0  0  0  0  0  0  0  0  0  0
   35.1191  -20.1423    0.0000 O   0  0  0  0  0  0  0  0  0  0  0  0
   36.5186  -17.7183    0.0000 C   0  0  0  0  0  0  0  0  0  0  0  0
   35.1191  -17.7183    0.0000 N   0  0  0  0  0  0  0  0  0  0  0  0
   34.4209  -16.5088    0.0000 C   0  0  0  0  0  0  0  0  0  0  0  0
   40.8797  -17.2898    0.0000 O   0  0  0  0  0  0  0  0  0  0  0  0
   40.8797  -17.2898    0.0000 O   0  0  0  0  0  0  0  0  0  0  0  0
   25.8300  -18.6900    0.0000 C   0  0  0  0  0  0  0  0  0  0  0  0
   19.5300  -16.8000    0.0000 C   0  0  0  0  0  0  0  0  0  0  0  0
   19.5300  -18.1300    0.0000 C   0  0  0  0  0  0  0  0  0  0  0  0
   20.7900  -18.1300    0.0000 N   0  0  0  0  0  0  0  0  0  0  0  0
   20.7900  -16.8000    0.0000 C   0  0  0  0  0  0  0  0  0  0  0  0
   22.1200  -18.5500    0.0000 C   0  0  0  0  0  0  0  0  0  0  0  0
   22.8900  -17.5000    0.0000 C   0  0  0  0  0  0  0  0  0  0  0  0
   22.1200  -16.3800    0.0000 C   0  0  0  0  0  0  0  0  0  0  0  0
   22.5400  -19.8800    0.0000 C   0  0  0  0  0  0  0  0  0  0  0  0
   23.8700  -19.8800    0.0000 O   0  0  0  0  0  0  0  0  0  0  0  0
   21.7700  -20.9300    0.0000 O   0  0  0  0  0  0  0  0  0  0  0  0
   25.2000  -17.5000    0.0000 S   0  0  0  0  0  0  0  0  0  0  0  0
   22.5400  -15.1200    0.0000 C   0  0  0  0  0  0  0  0  0  0  0  0
   18.3400  -16.1000    0.0000 C   0  0  0  0  0  0  0  0  0  0  0  0
   17.0800  -16.8000    0.0000 C   0  0  0  0  0  0  0  0  0  0  0  0
   18.3400  -18.8300    0.0000 O   0  0  0  0  0  0  0  0  0  0  0  0
   18.3400  -14.7000    0.0000 O   0  0  0  0  0  0  0  0  0  0  0  0
   25.4800  -20.0200    0.0000 C   0  0  0  0  0  0  0  0  0  0  0  0
   26.6000  -20.7900    0.0000 N   0  0  0  0  0  0  0  0  0  0  0  0
   27.7200  -19.9500    0.0000 C   0  0  0  0  0  0  0  0  0  0  0  0
   27.2300  -18.6900    0.0000 C   0  0  0  0  0  0  0  0  0  0  0  0
   29.1200  -19.9500    0.0000 C   0  0  0  0  0  0  0  0  0  0  0  0
   29.8200  -21.2100    0.0000 O   0  0  0  0  0  0  0  0  0  0  0  0
   31.2200  -18.7600    0.0000 C   0  0  0  0  0  0  0  0  0  0  0  0
   29.8200  -18.7600    0.0000 N   0  0  0  0  0  0  0  0  0  0  0  0
   29.1200  -17.5700    0.0000 C   0  0  0  0  0  0  0  0  0  0  0  0
   15.2080  -16.3187    0.0000 C   0  0  0  0  0  0  0  0  0  0  0  0
   15.2080  -17.7258    0.0000 C   0  0  0  0  0  0  0  0  0  0  0  0
   16.4266  -18.4295    0.0000 C   0  0  0  0  0  0  0  0  0  0  0  0
   17.6454  -17.7258    0.0000 C   0  0  0  0  0  0  0  0  0  0  0  0
   17.6454  -16.3187    0.0000 B   0  0  0  0  0  0  0  0  0  0  0  0
   16.4266  -15.6151    0.0000 O   0  0  0  0  0  0  0  0  0  0  0  0
   18.8828  -15.6041    0.0000 O   0  0  0  0  0  0  0  0  0  0  0  0
   18.8828  -18.4405    0.0000 N   0  0  0  0  0  0  0  0  0  0  0  0
   20.0941  -17.7412    0.0000 C   0  0  0  0  0  0  0  0  0  0  0  0
   21.2825  -18.4276    0.0000 C   0  0  0  0  0  0  0  0  0  0  0  0
   20.0945  -16.3191    0.0000 O   0  0  0  0  0  0  0  0  0  0  0  0
   22.4827  -17.7347    0.0000 C   0  0  0  0  0  0  0  0  0  0  0  0
   13.9894  -15.6151    0.0000 C   0  0  0  0  0  0  0  0  0  0  0  0
   23.8038  -18.1272    0.0000 C   0  0  0  0  0  0  0  0  0  0  0  0
   24.5883  -16.9938    0.0000 C   0  0  0  0  0  0  0  0  0  0  0  0
   23.7530  -15.8974    0.0000 C   0  0  0  0  0  0  0  0  0  0  0  0
   22.4521  -16.3531    0.0000 S   0  0  0  0  0  0  0  0  0  0  0  0
   13.9895  -14.1942    0.0000 C   0  0  0  0  0  0  0  0  0  0  0  0
   15.1953  -13.4980    0.0000 O   0  0  0  0  0  0  0  0  0  0  0  0
   12.7733  -13.4920    0.0000 O   0  0  0  0  0  0  0  0  0  0  0  0
  3  4  1  6
  4  5  1  0
  6  5  1  1
  3  6  1  0
  5  7  1  0
  7  8  2  0
  8  9  1  0
  6  9  1  0
  7 10  1  0
 10 11  1  0
 10 12  2  0
  8 13  1  0
  9 14  1  1
  3 15  1  0
 15 16  1  1
  4 17  2  0
 15 18  1  0
  2 13  1  1
  2 19  1  0
 19 20  1  0
 20 21  1  0
 21 22  1  0
  2 22  1  0
 21 23  1  1
 23 24  2  0
 25 26  1  0
 23 26  1  0
 26 27  1  0
 31 32  1  6
 32 33  1  0
 34 33  1  1
 31 34  1  0
 33 35  1  0
 35 36  2  0
 36 37  1  0
 34 37  1  0
 35 38  1  0
 38 39  1  0
 38 40  2  0
 36 41  1  0
 37 42  1  1
 31 43  1  0
 43 44  1  1
 32 45  2  0
 43 46  1  0
 30 41  1  1
 30 47  1  0
 47 48  1  0
 48 49  1  0
 49 50  1  0
 30 50  1  0
 49 51  1  1
 51 52  2  0
 53 54  1  0
 51 54  1  0
 54 55  1  0
 56 57  1  0
 57 58  1  0
 58 59  1  0
 59 60  1  0
 60 61  1  0
 56 61  1  0
 60 62  1  0
 59 63  1  1
 63 64  1  0
 64 65  1  0
 64 66  2  0
 65 67  1  0
 56 68  1  1
 67 69  2  0
 69 70  1  0
 70 71  2  0
 71 72  1  0
 67 72  1  0
 68 73  1  0
 73 74  2  0
 73 75  1  0
M  STY  1   1 MUL
M  SLB  1   1   1
M  SCN  1   1 HT 
M  SAL   1  3   1  28  29
M  SPA   1  1   1
M  SDI   1  4   38.8500  -18.4100   38.8500  -16.2400
M  SDI   1  4   41.4400  -16.2400   41.4400  -18.4100
M  SMT   1 3
M  END
