 
     RDKit          2D

109109  0  0  0  0  0  0  0  0999 V2000
   19.2774  -11.8495    0.0000 C   0  0  0  0  0  0  0  0  0  0  0  0
   17.7264  -11.8554    0.0000 C   0  0  0  0  0  0  0  0  0  0  0  0
   19.9250  -12.9665    0.0000 C   0  0  0  0  0  0  0  0  0  0  0  0
   17.0845  -12.9784    0.0000 C   0  0  0  0  0  0  0  0  0  0  0  0
   19.2832  -14.0898    0.0000 O   0  0  0  0  0  0  0  0  0  0  0  0
   21.2204  -12.9607    0.0000 O   0  0  0  0  0  0  0  0  0  0  0  0
   15.7890  -12.9784    0.0000 O   0  0  0  0  0  0  0  0  0  0  0  0
   17.7381  -14.0956    0.0000 O   0  0  0  0  0  0  0  0  0  0  0  0
    7.0000  -14.8400    0.0000 C   0  0  0  0  0  0  0  0  0  0  0  0
    7.0000  -16.2400    0.0000 C   0  0  0  0  0  0  0  0  0  0  0  0
    8.2124  -16.9400    0.0000 C   0  0  0  0  0  0  0  0  0  0  0  0
    9.4249  -16.2400    0.0000 C   0  0  0  0  0  0  0  0  0  0  0  0
    9.4249  -14.8400    0.0000 C   0  0  0  0  0  0  0  0  0  0  0  0
    8.2124  -14.1400    0.0000 C   0  0  0  0  0  0  0  0  0  0  0  0
   11.8497  -16.2400    0.0000 C   0  0  0  0  0  0  0  0  0  0  0  0
   11.8497  -14.8400    0.0000 C   0  0  0  0  0  0  0  0  0  0  0  0
   10.6373  -14.1400    0.0000 C   0  0  0  0  0  0  0  0  0  0  0  0
   13.0622  -16.9400    0.0000 C   0  0  0  0  0  0  0  0  0  0  0  0
   14.2746  -16.2400    0.0000 C   0  0  0  0  0  0  0  0  0  0  0  0
   14.2746  -14.8400    0.0000 C   0  0  0  0  0  0  0  0  0  0  0  0
   13.0622  -14.1400    0.0000 N   0  0  0  0  0  0  0  0  0  0  0  0
    5.7876  -16.9400    0.0000 Cl  0  0  0  0  0  0  0  0  0  0  0  0
   10.6373  -12.7400    0.0000 C   0  0  0  0  0  0  0  0  0  0  0  0
   11.8518  -12.0388    0.0000 C   0  0  0  0  0  0  0  0  0  0  0  0
   11.8518  -10.6402    0.0000 N   0  0  0  0  0  0  0  0  0  0  0  0
   13.0479   -9.9495    0.0000 C   0  0  0  0  0  0  0  0  0  0  0  0
   10.6230   -9.9306    0.0000 C   0  0  0  0  0  0  0  0  0  0  0  0
   25.7578  -16.0286    0.0000 C   0  0  0  0  0  0  0  0  0  0  0  0
   25.7578  -14.6988    0.0000 C   0  0  0  0  0  0  0  0  0  0  0  0
   26.9476  -16.7286    0.0000 C   0  0  0  0  0  0  0  0  0  0  0  0
   24.6379  -16.6586    0.0000 C   0  0  0  0  0  0  0  0  0  0  0  0
   26.9476  -15.3987    0.0000 C   0  0  0  0  0  0  0  0  0  0  0  0
   24.6379  -14.0688    0.0000 C   0  0  0  0  0  0  0  0  0  0  0  0
   26.9476  -14.0688    0.0000 C   0  0  0  0  0  0  0  0  0  0  0  0
   28.0675  -16.0286    0.0000 C   0  0  0  0  0  0  0  0  0  0  0  0
   26.9476  -17.9885    0.0000 C   0  0  0  0  0  0  0  0  0  0  0  0
   23.3780  -15.3287    0.0000 O   0  0  0  0  0  0  0  0  0  0  0  0
   24.6379  -17.9885    0.0000 C   0  0  0  0  0  0  0  0  0  0  0  0
   29.1874  -15.3987    0.0000 C   0  0  0  0  0  0  0  0  0  0  0  0
   24.6379  -12.7389    0.0000 C   0  0  0  0  0  0  0  0  0  0  0  0
   28.0675  -14.7688    0.0000 C   0  0  0  0  0  0  0  0  0  0  0  0
   26.9476  -12.7389    0.0000 C   0  0  0  0  0  0  0  0  0  0  0  0
   29.1874  -16.7286    0.0000 N   0  0  0  0  0  0  0  0  0  0  0  0
   25.7578  -18.6884    0.0000 C   0  0  0  0  0  0  0  0  0  0  0  0
   23.5880  -18.6884    0.0000 O   0  0  0  0  0  0  0  0  0  0  0  0
   25.8277  -12.1090    0.0000 C   0  0  0  0  0  0  0  0  0  0  0  0
   23.5880  -12.1090    0.0000 O   0  0  0  0  0  0  0  0  0  0  0  0
   22.3981  -12.7389    0.0000 C   0  0  0  0  0  0  0  0  0  0  0  0
   30.5873  -16.7286    0.0000 C   0  0  0  0  0  0  0  0  0  0  0  0
   34.5301  -13.5792    0.0000 O   0  0  0  0  0  0  0  0  0  0  0  0
   35.7425  -14.2791    0.0000 C   0  0  0  0  0  0  0  0  0  0  0  0
   36.9549  -13.5792    0.0000 C   0  0  0  0  0  0  0  0  0  0  0  0
   38.1672  -14.2791    0.0000 C   0  0  0  0  0  0  0  0  0  0  0  0
   39.3797  -13.5792    0.0000 C   0  0  0  0  0  0  0  0  0  0  0  0
   40.5920  -14.2791    0.0000 O   0  0  0  0  0  0  0  0  0  0  0  0
   35.7425  -15.6789    0.0000 O   0  0  0  0  0  0  0  0  0  0  0  0
   36.9549  -12.1792    0.0000 O   0  0  0  0  0  0  0  0  0  0  0  0
   38.1672  -15.6790    0.0000 O   0  0  0  0  0  0  0  0  0  0  0  0
   39.3797  -12.1795    0.0000 O   0  0  0  0  0  0  0  0  0  0  0  0
   38.2200  -18.0600    0.0000 O   0  0  0  0  0  0  0  0  0  0  0  0
   25.7578  -16.0286    0.0000 C   0  0  0  0  0  0  0  0  0  0  0  0
   25.7578  -14.6988    0.0000 C   0  0  0  0  0  0  0  0  0  0  0  0
   24.6379  -14.0688    0.0000 C   0  0  0  0  0  0  0  0  0  0  0  0
   24.6379  -12.7389    0.0000 C   0  0  0  0  0  0  0  0  0  0  0  0
   25.8277  -12.1090    0.0000 C   0  0  0  0  0  0  0  0  0  0  0  0
   26.9476  -12.7389    0.0000 C   0  0  0  0  0  0  0  0  0  0  0  0
   26.9476  -14.0688    0.0000 C   0  0  0  0  0  0  0  0  0  0  0  0
   28.0675  -14.7688    0.0000 C   0  0  0  0  0  0  0  0  0  0  0  0
   28.0675  -16.0286    0.0000 C   0  0  0  0  0  0  0  0  0  0  0  0
   26.9476  -16.7286    0.0000 C   0  0  0  0  0  0  0  0  0  0  0  0
   26.9476  -17.9885    0.0000 C   0  0  0  0  0  0  0  0  0  0  0  0
   25.7578  -18.6884    0.0000 C   0  0  0  0  0  0  0  0  0  0  0  0
   24.6379  -17.9885    0.0000 C   0  0  0  0  0  0  0  0  0  0  0  0
   24.6379  -16.6586    0.0000 C   0  0  0  0  0  0  0  0  0  0  0  0
   23.3780  -15.3287    0.0000 O   0  0  0  0  0  0  0  0  0  0  0  0
   23.5880  -18.6884    0.0000 O   0  0  0  0  0  0  0  0  0  0  0  0
   29.1874  -16.7286    0.0000 N   0  0  0  0  0  0  0  0  0  0  0  0
   29.1874  -15.3987    0.0000 C   0  0  0  0  0  0  0  0  0  0  0  0
   26.9476  -15.3987    0.0000 C   0  0  0  0  0  0  0  0  0  0  0  0
   30.5873  -16.7286    0.0000 C   0  0  0  0  0  0  0  0  0  0  0  0
   23.5880  -12.1090    0.0000 O   0  0  0  0  0  0  0  0  0  0  0  0
   22.3981  -12.7389    0.0000 C   0  0  0  0  0  0  0  0  0  0  0  0
   34.5301  -13.5792    0.0000 O   0  0  0  0  0  0  0  0  0  0  0  0
   35.7425  -14.2791    0.0000 C   0  0  0  0  0  0  0  0  0  0  0  0
   36.9549  -13.5792    0.0000 C   0  0  0  0  0  0  0  0  0  0  0  0
   38.1672  -14.2791    0.0000 C   0  0  0  0  0  0  0  0  0  0  0  0
   39.3797  -13.5792    0.0000 C   0  0  0  0  0  0  0  0  0  0  0  0
   40.5920  -14.2791    0.0000 O   0  0  0  0  0  0  0  0  0  0  0  0
   39.3797  -12.1795    0.0000 O   0  0  0  0  0  0  0  0  0  0  0  0
   38.1672  -15.6790    0.0000 O   0  0  0  0  0  0  0  0  0  0  0  0
   36.9549  -12.1792    0.0000 O   0  0  0  0  0  0  0  0  0  0  0  0
   35.7425  -15.6789    0.0000 O   0  0  0  0  0  0  0  0  0  0  0  0
   38.2200  -18.0600    0.0000 O   0  0  0  0  0  0  0  0  0  0  0  0
   38.2200  -18.0600    0.0000 O   0  0  0  0  0  0  0  0  0  0  0  0
   38.2200  -18.0600    0.0000 O   0  0  0  0  0  0  0  0  0  0  0  0
   38.2200  -18.0600    0.0000 O   0  0  0  0  0  0  0  0  0  0  0  0
   31.6713  -29.5074    0.0000 Cl  0  0  0  0  0  0  0  0  0  0  0  0
   21.1400  -29.6100    0.0000 C   0  0  0  0  0  0  0  0  0  0  0  0
   21.1400  -31.0100    0.0000 C   0  0  0  0  0  0  0  0  0  0  0  0
   22.3524  -31.7100    0.0000 C   0  0  0  0  0  0  0  0  0  0  0  0
   23.5649  -31.0100    0.0000 C   0  0  0  0  0  0  0  0  0  0  0  0
   23.5649  -29.6100    0.0000 C   0  0  0  0  0  0  0  0  0  0  0  0
   22.3524  -28.9100    0.0000 C   0  0  0  0  0  0  0  0  0  0  0  0
   24.7960  -28.8990    0.0000 C   0  0  0  0  0  0  0  0  0  0  0  0
   26.0012  -29.5947    0.0000 C   0  0  0  0  0  0  0  0  0  0  0  0
   24.7957  -27.5101    0.0000 O   0  0  0  0  0  0  0  0  0  0  0  0
   27.1835  -28.9119    0.0000 N   0  0  0  0  0  0  0  0  0  0  0  0
   26.0016  -31.0096    0.0000 C   0  0  0  0  0  0  0  0  0  0  0  0
   28.3775  -29.6012    0.0000 C   0  0  0  0  0  0  0  0  0  0  0  0
  1  2  2  0
  1  3  1  0
  2  4  1  0
  3  5  1  0
  3  6  2  0
  4  7  1  0
  4  8  2  0
  9 10  2  0
 10 11  1  0
 11 12  2  0
 12 13  1  0
 13 14  2  0
  9 14  1  0
 15 16  2  0
 16 17  1  0
 13 17  1  0
 15 18  1  0
 18 19  2  0
 19 20  1  0
 20 21  2  0
 16 21  1  0
 10 22  1  0
 17 23  1  0
 23 24  1  0
 24 25  1  0
 25 26  1  0
 25 27  1  0
 28 29  1  0
 28 30  1  0
 28 31  1  0
 28 32  1  1
 29 33  2  0
 29 34  1  0
 30 35  1  0
 30 36  1  6
 31 37  1  6
 31 38  1  0
 32 39  1  0
 33 40  1  0
 34 41  1  0
 34 42  2  0
 35 43  1  0
 36 44  1  0
 38 45  2  0
 40 46  2  0
 40 47  1  0
 47 48  1  0
 33 37  1  0
 35 41  1  1
 38 44  1  0
 39 43  1  0
 42 46  1  0
 43 49  1  0
 61 62  1  0
 61 70  1  0
 61 74  1  0
 61 79  1  1
 62 63  1  0
 62 67  2  0
 70 69  1  0
 70 71  1  6
 74 75  1  6
 74 73  1  0
 79 78  1  0
 63 64  2  0
 67 68  1  0
 67 66  1  0
 69 77  1  0
 71 72  1  0
 73 76  2  0
 64 65  1  0
 64 81  1  0
 81 82  1  0
 63 75  1  0
 69 68  1  1
 73 72  1  0
 78 77  1  0
 66 65  2  0
 77 80  1  0
 50 51  1  0
 51 52  1  0
 52 53  1  0
 53 54  1  0
 54 55  1  0
 51 56  2  0
 52 57  1  6
 53 58  1  6
 54 59  2  0
 83 84  1  0
 84 85  1  0
 85 86  1  0
 86 87  1  0
 87 88  1  0
 84 92  2  0
 85 91  1  6
 86 90  1  6
 87 89  2  0
 98 99  2  0
 99100  1  0
100101  2  0
101102  1  0
102103  2  0
 98103  1  0
102104  1  0
104105  1  0
104106  1  6
105107  1  0
105108  1  1
107109  1  0
M  END
