 
     RDKit          2D

 88 91  0  0  1  0  0  0  0  0999 V2000
   15.7761  -17.5990    0.0000 C   0  0  0  0  0  0  0  0  0  0  0  0
   15.7761  -18.9312    0.0000 C   0  0  0  0  0  0  0  0  0  0  0  0
   16.8979  -19.5622    0.0000 C   0  0  0  0  0  0  0  0  0  0  0  0
   18.0899  -18.9312    0.0000 C   0  0  0  0  0  0  0  0  0  0  0  0
   18.0899  -17.5990    0.0000 C   0  0  0  0  0  0  0  0  0  0  0  0
   16.8979  -16.8978    0.0000 C   0  0  0  0  0  0  0  0  0  0  0  0
   19.2818  -16.8978    0.0000 C   0  0  0  0  0  0  0  0  0  0  0  0
   20.4738  -17.5990    0.0000 C   0  0  0  0  0  0  0  0  0  0  0  0
   20.4738  -18.9312    0.0000 C   0  0  0  0  0  0  0  0  0  0  0  0
   21.5957  -19.5622    0.0000 C   0  0  0  0  0  0  0  0  0  0  0  0
   22.7175  -18.9312    0.0000 C   0  0  0  0  0  0  0  0  0  0  0  0
   22.7175  -17.5990    0.0000 C   0  0  0  0  0  0  0  0  0  0  0  0
   21.5957  -16.8978    0.0000 C   0  0  0  0  0  0  0  0  0  0  0  0
   19.2818  -19.5622    0.0000 Cl  0  0  0  0  0  0  0  0  0  0  0  0
   23.9095  -19.5622    0.0000 O   0  0  0  0  0  0  0  0  0  0  0  0
   25.0313  -18.9312    0.0000 C   0  0  0  0  0  0  0  0  0  0  0  0
   26.1532  -19.5622    0.0000 C   0  0  0  0  0  0  0  0  0  0  0  0
   14.5841  -16.8978    0.0000 C   0  0  0  0  0  0  0  0  0  0  0  0
   14.5841  -15.5656    0.0000 O   0  0  0  0  0  0  0  0  0  0  0  0
   13.3922  -14.8645    0.0000 C   0  0  0  0  0  0  0  0  0  0  0  0
   12.2703  -15.5656    0.0000 C   0  0  0  0  0  0  0  0  0  0  0  0
   12.2703  -16.8978    0.0000 C   0  0  0  0  0  0  0  0  0  0  0  0
   13.3922  -17.5990    0.0000 C   0  0  0  0  0  0  0  0  0  0  0  0
   13.3922  -18.9312    0.0000 O   0  0  0  0  0  0  0  0  0  0  0  0
   11.0783  -14.8645    0.0000 O   0  0  0  0  0  0  0  0  0  0  0  0
   11.0783  -17.5990    0.0000 O   0  0  0  0  0  0  0  0  0  0  0  0
   13.3922  -13.5323    0.0000 C   0  0  0  0  0  0  0  0  0  0  0  0
   14.5841  -12.8311    0.0000 O   0  0  0  0  0  0  0  0  0  0  0  0
   14.8646  -14.0231    0.0000 C   0  0  0  0  0  0  0  0  0  0  0  0
   16.2669  -15.9162    0.0000 O   0  0  0  0  0  0  0  0  0  0  0  0
   29.7178  -15.4386    0.0000 C   0  0  0  0  0  0  0  0  0  0  0  0
   30.1370  -16.7660    0.0000 C   0  0  0  0  0  0  0  0  0  0  0  0
   31.5343  -16.7659    0.0000 C   0  0  0  0  0  0  0  0  0  0  0  0
   32.0234  -15.5084    0.0000 C   0  0  0  0  0  0  0  0  0  0  0  0
   30.9055  -14.6700    0.0000 N   0  0  0  0  0  0  0  0  0  0  0  0
   33.2111  -14.7399    0.0000 C   0  0  0  0  0  0  0  0  0  0  0  0
   34.3988  -15.4386    0.0000 O   0  0  0  0  0  0  0  0  0  0  0  0
   33.2111  -13.3426    0.0000 O   0  0  0  0  0  0  0  0  0  0  0  0
   28.3903  -15.0194    0.0000 O   0  0  0  0  0  0  0  0  0  0  0  0
   17.9900  -18.1300    0.0000 C   0  0  0  0  0  0  0  0  0  0  0  0
   17.9900  -19.5300    0.0000 C   0  0  0  0  0  0  0  0  0  0  0  0
   19.1800  -20.2300    0.0000 C   0  0  0  0  0  0  0  0  0  0  0  0
   20.4400  -19.5300    0.0000 C   0  0  0  0  0  0  0  0  0  0  0  0
   20.4400  -18.1300    0.0000 C   0  0  0  0  0  0  0  0  0  0  0  0
   19.1800  -17.4300    0.0000 C   0  0  0  0  0  0  0  0  0  0  0  0
   21.6300  -17.4300    0.0000 C   0  0  0  0  0  0  0  0  0  0  0  0
   22.8900  -18.1300    0.0000 C   0  0  0  0  0  0  0  0  0  0  0  0
   22.8900  -19.5300    0.0000 C   0  0  0  0  0  0  0  0  0  0  0  0
   24.0800  -20.2300    0.0000 C   0  0  0  0  0  0  0  0  0  0  0  0
   25.2700  -19.5300    0.0000 C   0  0  0  0  0  0  0  0  0  0  0  0
   25.2700  -18.1300    0.0000 C   0  0  0  0  0  0  0  0  0  0  0  0
   24.0800  -17.4300    0.0000 C   0  0  0  0  0  0  0  0  0  0  0  0
   21.6300  -20.2300    0.0000 Cl  0  0  0  0  0  0  0  0  0  0  0  0
   26.4600  -20.2300    0.0000 O   0  0  0  0  0  0  0  0  0  0  0  0
   27.6500  -19.5300    0.0000 C   0  0  0  0  0  0  0  0  0  0  0  0
   28.8400  -20.2300    0.0000 C   0  0  0  0  0  0  0  0  0  0  0  0
   16.8000  -17.4300    0.0000 C   0  0  0  0  0  0  0  0  0  0  0  0
   16.8000  -16.0300    0.0000 O   0  0  0  0  0  0  0  0  0  0  0  0
   15.5400  -15.3300    0.0000 C   0  0  0  0  0  0  0  0  0  0  0  0
   14.3500  -16.0300    0.0000 C   0  0  0  0  0  0  0  0  0  0  0  0
   14.3500  -17.4300    0.0000 C   0  0  0  0  0  0  0  0  0  0  0  0
   15.5400  -18.1300    0.0000 C   0  0  0  0  0  0  0  0  0  0  0  0
   15.5400  -19.5300    0.0000 O   0  0  0  0  0  0  0  0  0  0  0  0
   13.1600  -15.3300    0.0000 O   0  0  0  0  0  0  0  0  0  0  0  0
   13.1600  -18.1300    0.0000 O   0  0  0  0  0  0  0  0  0  0  0  0
   15.5400  -13.9300    0.0000 C   0  0  0  0  0  0  0  0  0  0  0  0
   16.8000  -13.2300    0.0000 O   0  0  0  0  0  0  0  0  0  0  0  0
   17.0324  -14.4200    0.0000 C   0  0  0  0  0  0  0  0  0  0  0  0
   18.5024  -16.3800    0.0000 O   0  0  0  0  0  0  0  0  0  0  0  0
   25.2991  -19.3605    0.0000 C   0  0  0  0  0  0  0  0  0  0  0  0
   24.0935  -18.6673    0.0000 N   0  0  0  0  0  0  0  0  0  0  0  0
   26.5163  -18.6673    0.0000 N   0  0  0  0  0  0  0  0  0  0  0  0
   25.2991  -20.7640    0.0000 N   0  0  0  0  0  0  0  0  0  0  0  0
   22.8764  -19.3605    0.0000 C   0  0  0  0  0  0  0  0  0  0  0  0
   27.7278  -19.3605    0.0000 C   0  0  0  0  0  0  0  0  0  0  0  0
   26.5163  -17.2579    0.0000 C   0  0  0  0  0  0  0  0  0  0  0  0
   21.6649  -18.6673    0.0000 N   0  0  0  0  0  0  0  0  0  0  0  0
   22.8764  -20.7640    0.0000 N   0  0  0  0  0  0  0  0  0  0  0  0
   31.1135  -18.2132    0.0000 Cl  0  0  0  0  0  0  0  0  0  0  0  0
   26.2960  -19.4016    0.0000 C   0  0  0  0  0  0  0  0  0  0  0  0
   25.0898  -18.7081    0.0000 N   0  0  0  0  0  0  0  0  0  0  0  0
   27.5139  -18.7081    0.0000 N   0  0  0  0  0  0  0  0  0  0  0  0
   26.2960  -20.8058    0.0000 N   0  0  0  0  0  0  0  0  0  0  0  0
   23.8721  -19.4016    0.0000 C   0  0  0  0  0  0  0  0  0  0  0  0
   28.7260  -19.4016    0.0000 C   0  0  0  0  0  0  0  0  0  0  0  0
   27.5139  -17.3038    0.0000 C   0  0  0  0  0  0  0  0  0  0  0  0
   22.6600  -18.7081    0.0000 N   0  0  0  0  0  0  0  0  0  0  0  0
   23.8721  -20.8058    0.0000 N   0  0  0  0  0  0  0  0  0  0  0  0
  1  2  2  0
  2  3  1  0
  3  4  2  0
  4  5  1  0
  5  6  2  0
  1  6  1  0
  5  7  1  0
  7  8  1  0
  8  9  2  0
  9 10  1  0
 10 11  2  0
 11 12  1  0
 12 13  2  0
  8 13  1  0
  4 14  1  0
 11 15  1  0
 15 16  1  0
 16 17  1  0
 18  1  1  1
 18 19  1  0
 19 20  1  0
 20 21  1  0
 21 22  1  0
 22 23  1  0
 18 23  1  0
 23 24  1  6
 21 25  1  6
 22 26  1  1
 20 27  1  1
 27 28  1  0
 20 29  1  0
 18 30  1  0
 29 30  1  0
 31 32  1  0
 32 33  1  0
 33 34  1  0
 34 35  1  0
 31 35  1  0
 34 36  1  6
 36 37  1  0
 36 38  2  0
 31 39  2  0
 40 41  2  0
 41 42  1  0
 42 43  2  0
 43 44  1  0
 44 45  2  0
 40 45  1  0
 44 46  1  0
 46 47  1  0
 47 48  2  0
 48 49  1  0
 49 50  2  0
 50 51  1  0
 51 52  2  0
 47 52  1  0
 43 53  1  0
 50 54  1  0
 54 55  1  0
 55 56  1  0
 57 40  1  1
 57 58  1  0
 58 59  1  0
 59 60  1  0
 60 61  1  0
 61 62  1  0
 57 62  1  0
 62 63  1  6
 60 64  1  6
 61 65  1  1
 59 66  1  1
 66 67  1  0
 59 68  1  0
 57 69  1  0
 68 69  1  0
 70 71  1  0
 70 72  1  0
 70 73  2  0
 71 74  1  0
 72 75  1  0
 72 76  1  0
 74 77  1  0
 74 78  2  0
 80 81  1  0
 80 82  1  0
 80 83  2  0
 81 84  1  0
 82 85  1  0
 82 86  1  0
 84 87  1  0
 84 88  2  0
M  END
