 
     RDKit          2D

197217  0  0  1  0  0  0  0  0999 V2000
    4.4800  -12.6000    0.0000 C   0  0  0  0  0  0  0  0  0  0  0  0
    4.4800  -14.0000    0.0000 C   0  0  0  0  0  0  0  0  0  0  0  0
    5.6700  -14.7000    0.0000 C   0  0  0  0  0  0  0  0  0  0  0  0
    6.9300  -14.0000    0.0000 C   0  0  0  0  0  0  0  0  0  0  0  0
    6.9300  -12.6000    0.0000 C   0  0  0  0  0  0  0  0  0  0  0  0
    5.6700  -11.9000    0.0000 C   0  0  0  0  0  0  0  0  0  0  0  0
    8.1200  -14.7000    0.0000 N   0  0  0  0  0  0  0  0  0  0  0  0
    9.3100  -14.0000    0.0000 C   0  0  0  0  0  0  0  0  0  0  0  0
    9.3100  -12.6000    0.0000 C   0  0  0  0  0  0  0  0  0  0  0  0
    8.1200  -11.9000    0.0000 N   0  0  0  0  0  0  0  0  0  0  0  0
   10.5700  -14.7000    0.0000 O   0  0  0  0  0  0  0  0  0  0  0  0
   10.5700  -11.9000    0.0000 C   0  0  0  0  0  0  0  0  0  0  0  0
   10.5700  -16.1000    0.0000 C   0  0  0  0  0  0  0  0  0  0  0  0
   11.7600  -12.6000    0.0000 C   0  0  0  0  0  0  0  0  0  0  0  0
   11.2700  -10.7100    0.0000 F   0  0  0  0  0  0  0  0  0  0  0  0
    9.8700  -10.7100    0.0000 F   0  0  0  0  0  0  0  0  0  0  0  0
   12.9500  -11.9000    0.0000 C   0  0  0  0  0  0  0  0  0  0  0  0
   14.1400  -12.6000    0.0000 C   0  0  0  0  0  0  0  0  0  0  0  0
   15.3300  -11.9000    0.0000 O   0  0  0  0  0  0  0  0  0  0  0  0
   16.5200  -12.6000    0.0000 C   0  0  0  0  0  0  0  0  0  0  0  0
   16.5200  -14.0000    0.0000 C   0  0  0  0  0  0  0  0  0  0  0  0
   15.3300  -14.7000    0.0000 O   0  0  0  0  0  0  0  0  0  0  0  0
   15.3300  -16.1000    0.0000 C   0  0  0  0  0  0  0  0  0  0  0  0
   16.5200  -16.8000    0.0000 O   0  0  0  0  0  0  0  0  0  0  0  0
   14.1400  -16.8000    0.0000 N   0  0  0  0  0  0  0  0  0  0  0  0
   14.1400  -18.2000    0.0000 C   0  0  0  0  0  0  0  0  0  0  0  0
   15.3300  -18.9000    0.0000 C   0  0  0  0  0  0  0  0  0  0  0  0
   12.9500  -18.9000    0.0000 C   0  0  0  0  0  0  0  0  0  0  0  0
   11.7600  -18.2000    0.0000 N   0  0  0  0  0  0  0  0  0  0  0  0
   12.9500  -20.3000    0.0000 O   0  0  0  0  0  0  0  0  0  0  0  0
   17.8500  -14.4200    0.0000 C   0  0  0  0  0  0  0  0  0  0  0  0
   18.6900  -13.3000    0.0000 C   0  0  0  0  0  0  0  0  0  0  0  0
   17.8500  -12.1800    0.0000 C   0  0  0  0  0  0  0  0  0  0  0  0
   11.7600  -16.8000    0.0000 C   0  0  0  0  0  0  0  0  0  0  0  0
   10.1500  -18.6200    0.0000 C   0  0  0  0  0  0  0  0  0  0  0  0
    9.3800  -17.1500    0.0000 C   0  0  0  0  0  0  0  0  0  0  0  0
    8.0500  -19.8100    0.0000 N   0  0  0  0  0  0  0  0  0  0  0  0
    9.4500  -19.8100    0.0000 C   0  0  0  0  0  0  0  0  0  0  0  0
   10.1500  -21.0000    0.0000 O   0  0  0  0  0  0  0  0  0  0  0  0
   16.5200  -18.2000    0.0000 C   0  0  0  0  0  0  0  0  0  0  0  0
   15.3300  -20.3000    0.0000 C   0  0  0  0  0  0  0  0  0  0  0  0
   16.5200  -19.6000    0.0000 C   0  0  0  0  0  0  0  0  0  0  0  0
    7.3500  -21.0000    0.0000 C   0  0  0  0  0  0  0  0  0  0  0  0
    5.9500  -21.0000    0.0000 C   0  0  0  0  0  0  0  0  0  0  0  0
    6.6500  -22.1900    0.0000 C   0  0  0  0  0  0  0  0  0  0  0  0
    8.0500  -22.1900    0.0000 C   0  0  0  0  0  0  0  0  0  0  0  0
    9.2400  -22.8900    0.0000 C   0  0  0  0  0  0  0  0  0  0  0  0
   10.4300  -22.1900    0.0000 F   0  0  0  0  0  0  0  0  0  0  0  0
    9.2400  -24.2900    0.0000 F   0  0  0  0  0  0  0  0  0  0  0  0
    5.2500  -19.8100    0.0000 O   0  0  0  0  0  0  0  0  0  0  0  0
    5.2500  -22.1900    0.0000 N   0  0  0  0  0  0  0  0  0  0  0  0
    3.8500  -22.1900    0.0000 S   0  0  0  0  0  0  0  0  0  0  0  0
    3.1500  -23.3800    0.0000 C   0  0  0  0  0  0  0  0  0  0  0  0
    1.7500  -23.3800    0.0000 C   0  0  0  0  0  0  0  0  0  0  0  0
    2.4500  -24.5700    0.0000 C   0  0  0  0  0  0  0  0  0  0  0  0
    3.8500  -24.5700    0.0000 C   0  0  0  0  0  0  0  0  0  0  0  0
    3.8500  -20.7900    0.0000 O   0  0  0  0  0  0  0  0  0  0  0  0
    2.4500  -22.1900    0.0000 O   0  0  0  0  0  0  0  0  0  0  0  0
   12.8975  -11.2151    0.0000 C   0  0  0  0  0  0  0  0  0  0  0  0
   12.8975  -12.6170    0.0000 C   0  0  0  0  0  0  0  0  0  0  0  0
   14.0891  -13.3179    0.0000 C   0  0  0  0  0  0  0  0  0  0  0  0
   15.3508  -12.6170    0.0000 C   0  0  0  0  0  0  0  0  0  0  0  0
   15.3508  -11.2151    0.0000 C   0  0  0  0  0  0  0  0  0  0  0  0
   14.0891  -10.5142    0.0000 C   0  0  0  0  0  0  0  0  0  0  0  0
   16.5424  -13.3179    0.0000 N   0  0  0  0  0  0  0  0  0  0  0  0
   17.7340  -12.6170    0.0000 C   0  0  0  0  0  0  0  0  0  0  0  0
   17.7340  -11.2151    0.0000 C   0  0  0  0  0  0  0  0  0  0  0  0
   16.5424  -10.5142    0.0000 N   0  0  0  0  0  0  0  0  0  0  0  0
   18.9957  -13.3179    0.0000 O   0  0  0  0  0  0  0  0  0  0  0  0
   18.9957  -10.5142    0.0000 C   0  0  0  0  0  0  0  0  0  0  0  0
   18.9957  -14.7198    0.0000 C   0  0  0  0  0  0  0  0  0  0  0  0
   20.1873  -11.2151    0.0000 C   0  0  0  0  0  0  0  0  0  0  0  0
   19.6966   -9.3226    0.0000 F   0  0  0  0  0  0  0  0  0  0  0  0
   18.2947   -9.3226    0.0000 F   0  0  0  0  0  0  0  0  0  0  0  0
   21.3789  -10.5142    0.0000 C   0  0  0  0  0  0  0  0  0  0  0  0
   22.5705  -11.2151    0.0000 C   0  0  0  0  0  0  0  0  0  0  0  0
   23.7621  -10.5142    0.0000 O   0  0  0  0  0  0  0  0  0  0  0  0
   24.9537  -11.2151    0.0000 C   0  0  0  0  0  0  0  0  0  0  0  0
   24.9537  -12.6170    0.0000 C   0  0  0  0  0  0  0  0  0  0  0  0
   23.7621  -13.3179    0.0000 O   0  0  0  0  0  0  0  0  0  0  0  0
   23.7621  -14.7198    0.0000 C   0  0  0  0  0  0  0  0  0  0  0  0
   24.9537  -15.4208    0.0000 O   0  0  0  0  0  0  0  0  0  0  0  0
   22.5705  -15.4208    0.0000 N   0  0  0  0  0  0  0  0  0  0  0  0
   22.5705  -16.7526    0.0000 C   0  0  0  0  0  0  0  0  0  0  0  0
   23.7621  -17.4535    0.0000 C   0  0  0  0  0  0  0  0  0  0  0  0
   21.3789  -17.4535    0.0000 C   0  0  0  0  0  0  0  0  0  0  0  0
   20.1873  -16.7526    0.0000 N   0  0  0  0  0  0  0  0  0  0  0  0
   21.3789  -18.8554    0.0000 O   0  0  0  0  0  0  0  0  0  0  0  0
   26.2154  -13.0376    0.0000 C   0  0  0  0  0  0  0  0  0  0  0  0
   27.0565  -11.9160    0.0000 C   0  0  0  0  0  0  0  0  0  0  0  0
   26.2154  -10.7945    0.0000 C   0  0  0  0  0  0  0  0  0  0  0  0
   20.1873  -15.4208    0.0000 C   0  0  0  0  0  0  0  0  0  0  0  0
   18.5751  -17.1731    0.0000 C   0  0  0  0  0  0  0  0  0  0  0  0
   17.8041  -15.7011    0.0000 C   0  0  0  0  0  0  0  0  0  0  0  0
   16.4723  -18.3647    0.0000 N   0  0  0  0  0  0  0  0  0  0  0  0
   17.8742  -18.3647    0.0000 C   0  0  0  0  0  0  0  0  0  0  0  0
   18.5751  -19.5563    0.0000 O   0  0  0  0  0  0  0  0  0  0  0  0
   24.9537  -16.7526    0.0000 C   0  0  0  0  0  0  0  0  0  0  0  0
   23.7621  -18.8554    0.0000 C   0  0  0  0  0  0  0  0  0  0  0  0
   24.9537  -18.1545    0.0000 C   0  0  0  0  0  0  0  0  0  0  0  0
   15.7713  -19.5563    0.0000 C   0  0  0  0  0  0  0  0  0  0  0  0
   14.3694  -19.5563    0.0000 C   0  0  0  0  0  0  0  0  0  0  0  0
   15.0704  -20.7479    0.0000 C   0  0  0  0  0  0  0  0  0  0  0  0
   16.4723  -20.7479    0.0000 C   0  0  0  0  0  0  0  0  0  0  0  0
   17.6639  -21.4489    0.0000 C   0  0  0  0  0  0  0  0  0  0  0  0
   18.8555  -20.7479    0.0000 F   0  0  0  0  0  0  0  0  0  0  0  0
   17.6639  -22.8508    0.0000 F   0  0  0  0  0  0  0  0  0  0  0  0
   13.6685  -18.3647    0.0000 O   0  0  0  0  0  0  0  0  0  0  0  0
   13.6685  -20.7479    0.0000 N   0  0  0  0  0  0  0  0  0  0  0  0
   12.2666  -20.7479    0.0000 S   0  0  0  0  0  0  0  0  0  0  0  0
   11.5657  -21.9396    0.0000 C   0  0  0  0  0  0  0  0  0  0  0  0
   10.1638  -21.9396    0.0000 C   0  0  0  0  0  0  0  0  0  0  0  0
   10.8647  -23.1312    0.0000 C   0  0  0  0  0  0  0  0  0  0  0  0
   12.2666  -23.1312    0.0000 C   0  0  0  0  0  0  0  0  0  0  0  0
   12.2666  -19.3461    0.0000 O   0  0  0  0  0  0  0  0  0  0  0  0
   10.8647  -20.7479    0.0000 O   0  0  0  0  0  0  0  0  0  0  0  0
   25.1300  -23.1000    0.0000 O   0  0  0  0  0  0  0  0  0  0  0  0
   11.7600  -17.1500    0.0000 C   0  0  0  0  0  0  0  0  0  0  0  0
   12.1800  -18.4800    0.0000 C   0  0  0  0  0  0  0  0  0  0  0  0
   13.5800  -18.4800    0.0000 C   0  0  0  0  0  0  0  0  0  0  0  0
   14.0000  -17.1500    0.0000 C   0  0  0  0  0  0  0  0  0  0  0  0
   12.8800  -16.3100    0.0000 N   0  0  0  0  0  0  0  0  0  0  0  0
   12.8800  -14.9100    0.0000 C   0  0  0  0  0  0  0  0  0  0  0  0
   14.0700  -14.2100    0.0000 C   0  0  0  0  0  0  0  0  0  0  0  0
   14.0700  -12.8100    0.0000 C   0  0  0  0  0  0  0  0  0  0  0  0
   12.8800  -12.1100    0.0000 C   0  0  0  0  0  0  0  0  0  0  0  0
   11.6900  -12.8100    0.0000 C   0  0  0  0  0  0  0  0  0  0  0  0
   11.6900  -14.2100    0.0000 C   0  0  0  0  0  0  0  0  0  0  0  0
   12.8800  -10.7100    0.0000 N   0  0  0  0  0  0  0  0  0  0  0  0
   14.0700  -10.0100    0.0000 C   0  0  0  0  0  0  0  0  0  0  0  0
   14.0700   -8.6100    0.0000 C   0  0  0  0  0  0  0  0  0  0  0  0
   12.8800   -7.9100    0.0000 C   0  0  0  0  0  0  0  0  0  0  0  0
   11.6900   -8.6100    0.0000 C   0  0  0  0  0  0  0  0  0  0  0  0
   11.6900  -10.0100    0.0000 C   0  0  0  0  0  0  0  0  0  0  0  0
   12.8800   -6.5100    0.0000 C   0  0  0  0  0  0  0  0  0  0  0  0
   14.0700   -5.8100    0.0000 C   0  0  0  0  0  0  0  0  0  0  0  0
   14.0700   -4.4100    0.0000 C   0  0  0  0  0  0  0  0  0  0  0  0
   12.8800   -3.7100    0.0000 C   0  0  0  0  0  0  0  0  0  0  0  0
   11.6900   -4.4100    0.0000 C   0  0  0  0  0  0  0  0  0  0  0  0
   11.6900   -5.8100    0.0000 C   0  0  0  0  0  0  0  0  0  0  0  0
   12.8800   -2.3100    0.0000 F   0  0  0  0  0  0  0  0  0  0  0  0
   15.3300  -12.1100    0.0000 F   0  0  0  0  0  0  0  0  0  0  0  0
   10.5000  -12.1100    0.0000 F   0  0  0  0  0  0  0  0  0  0  0  0
   15.3300  -16.7300    0.0000 C   0  0  0  0  0  0  0  0  0  0  0  0
   10.3600  -16.7300    0.0000 C   0  0  0  0  0  0  0  0  0  0  0  0
   10.3600  -15.3300    0.0000 C   0  0  0  0  0  0  0  0  0  0  0  0
    9.1700  -14.7000    0.0000 C   0  0  0  0  0  0  0  0  0  0  0  0
    7.9800  -15.4000    0.0000 C   0  0  0  0  0  0  0  0  0  0  0  0
    7.9800  -16.8000    0.0000 C   0  0  0  0  0  0  0  0  0  0  0  0
    9.2400  -17.5000    0.0000 C   0  0  0  0  0  0  0  0  0  0  0  0
    9.2400  -18.9000    0.0000 F   0  0  0  0  0  0  0  0  0  0  0  0
    8.8200  -13.2300    0.0000 N   0  0  0  0  0  0  0  0  0  0  0  0
    7.4200  -13.2300    0.0000 C   0  0  0  0  0  0  0  0  0  0  0  0
    6.9300  -14.4900    0.0000 N   0  0  0  0  0  0  0  0  0  0  0  0
    6.7200  -12.0400    0.0000 C   0  0  0  0  0  0  0  0  0  0  0  0
    7.2100  -10.7100    0.0000 N   0  0  0  0  0  0  0  0  0  0  0  0
    6.0900   -9.8700    0.0000 C   0  0  0  0  0  0  0  0  0  0  0  0
    4.9700  -10.6400    0.0000 C   0  0  0  0  0  0  0  0  0  0  0  0
    5.3900  -12.0400    0.0000 C   0  0  0  0  0  0  0  0  0  0  0  0
    8.4000  -10.0100    0.0000 C   0  0  0  0  0  0  0  0  0  0  0  0
    9.5900  -10.7100    0.0000 O   0  0  0  0  0  0  0  0  0  0  0  0
    8.4000   -8.6100    0.0000 C   0  0  0  0  0  0  0  0  0  0  0  0
    9.5900   -7.9100    0.0000 N   0  0  0  0  0  0  0  0  0  0  0  0
    7.2100   -7.9100    0.0000 C   0  0  0  0  0  0  0  0  0  0  0  0
    9.5900   -6.5100    0.0000 C   0  0  0  0  0  0  0  0  0  0  0  0
   10.7800   -5.8100    0.0000 O   0  0  0  0  0  0  0  0  0  0  0  0
    8.4000   -5.8100    0.0000 O   0  0  0  0  0  0  0  0  0  0  0  0
    8.4000   -4.4100    0.0000 C   0  0  0  0  0  0  0  0  0  0  0  0
    6.0200   -8.6100    0.0000 O   0  0  0  0  0  0  0  0  0  0  0  0
    7.2100   -6.5100    0.0000 C   0  0  0  0  0  0  0  0  0  0  0  0
    4.8300   -7.9100    0.0000 C   0  0  0  0  0  0  0  0  0  0  0  0
   15.3300  -15.2600    0.0000 C   0  0  0  0  0  0  0  0  0  0  0  0
   16.5200  -14.6300    0.0000 C   0  0  0  0  0  0  0  0  0  0  0  0
   17.7100  -15.3300    0.0000 C   0  0  0  0  0  0  0  0  0  0  0  0
   17.7100  -16.7300    0.0000 C   0  0  0  0  0  0  0  0  0  0  0  0
   16.4500  -17.4300    0.0000 C   0  0  0  0  0  0  0  0  0  0  0  0
   16.4500  -18.9000    0.0000 F   0  0  0  0  0  0  0  0  0  0  0  0
   16.8700  -13.1600    0.0000 N   0  0  0  0  0  0  0  0  0  0  0  0
   18.2700  -13.1600    0.0000 C   0  0  0  0  0  0  0  0  0  0  0  0
   18.7600  -14.4200    0.0000 N   0  0  0  0  0  0  0  0  0  0  0  0
   18.9700  -11.9700    0.0000 C   0  0  0  0  0  0  0  0  0  0  0  0
   18.4800  -10.6400    0.0000 N   0  0  0  0  0  0  0  0  0  0  0  0
   19.6700   -9.8000    0.0000 C   0  0  0  0  0  0  0  0  0  0  0  0
   20.7900  -10.5700    0.0000 C   0  0  0  0  0  0  0  0  0  0  0  0
   20.3700  -11.9700    0.0000 C   0  0  0  0  0  0  0  0  0  0  0  0
   17.2900   -9.9400    0.0000 C   0  0  0  0  0  0  0  0  0  0  0  0
   16.1000  -10.6400    0.0000 O   0  0  0  0  0  0  0  0  0  0  0  0
   17.2900   -8.5400    0.0000 C   0  0  0  0  0  0  0  0  0  0  0  0
   16.1000   -7.8400    0.0000 N   0  0  0  0  0  0  0  0  0  0  0  0
   18.4800   -7.8400    0.0000 C   0  0  0  0  0  0  0  0  0  0  0  0
   16.1000   -6.4400    0.0000 C   0  0  0  0  0  0  0  0  0  0  0  0
   14.9100   -5.6700    0.0000 O   0  0  0  0  0  0  0  0  0  0  0  0
   17.2900   -5.6700    0.0000 O   0  0  0  0  0  0  0  0  0  0  0  0
   17.2900   -4.2700    0.0000 C   0  0  0  0  0  0  0  0  0  0  0  0
   19.7400   -8.5400    0.0000 O   0  0  0  0  0  0  0  0  0  0  0  0
   18.4800   -6.4400    0.0000 C   0  0  0  0  0  0  0  0  0  0  0  0
   20.9300   -7.8400    0.0000 C   0  0  0  0  0  0  0  0  0  0  0  0
  1  2  2  0
  2  3  1  0
  3  4  2  0
  4  5  1  0
  5  6  2  0
  1  6  1  0
  4  7  1  0
  7  8  2  0
  8  9  1  0
  9 10  2  0
  5 10  1  0
  8 11  1  0
  9 12  1  0
 11 13  1  0
 12 14  1  0
 12 15  1  0
 12 16  1  0
 14 17  2  0
 17 18  1  0
 18 19  1  0
 19 20  1  0
 20 21  1  0
 21 22  1  0
 22 23  1  0
 23 24  2  0
 23 25  1  0
 25 26  1  0
 26 27  1  1
 26 28  1  0
 28 29  1  0
 28 30  2  0
 21 31  1  1
 31 32  1  0
 32 33  1  0
 20 33  1  6
 29 34  1  0
 34 13  1  0
 29 35  1  0
 13 36  1  1
 35 36  1  0
 37 38  1  0
 35 38  1  6
 38 39  2  0
 27 40  1  0
 27 41  1  0
 27 42  1  0
 43 37  1  1
 43 44  1  0
 45 46  1  0
 46 43  1  0
 43 45  1  0
 46 47  1  6
 47 48  1  0
 47 49  1  0
 44 50  2  0
 44 51  1  0
 51 52  1  0
 52 53  1  0
 53 54  1  0
 55 56  1  0
 56 53  1  0
 53 55  1  0
 52 57  2  0
 52 58  2  0
 59 60  2  0
 60 61  1  0
 61 62  2  0
 62 63  1  0
 63 64  2  0
 59 64  1  0
 62 65  1  0
 65 66  2  0
 66 67  1  0
 67 68  2  0
 63 68  1  0
 66 69  1  0
 67 70  1  0
 69 71  1  0
 70 72  1  0
 70 73  1  0
 70 74  1  0
 72 75  2  0
 75 76  1  0
 76 77  1  0
 77 78  1  0
 78 79  1  0
 79 80  1  0
 80 81  1  0
 81 82  2  0
 81 83  1  0
 83 84  1  0
 84 85  1  1
 84 86  1  0
 86 87  1  0
 86 88  2  0
 79 89  1  1
 89 90  1  0
 90 91  1  0
 78 91  1  6
 87 92  1  0
 92 71  1  0
 87 93  1  0
 71 94  1  1
 93 94  1  0
 95 96  1  0
 93 96  1  6
 96 97  2  0
 85 98  1  0
 85 99  1  0
 85100  1  0
101 95  1  1
101102  1  0
103104  1  0
104101  1  0
101103  1  0
104105  1  6
105106  1  0
105107  1  0
102108  2  0
102109  1  0
109110  1  0
110111  1  0
111112  1  0
113114  1  0
114111  1  0
111113  1  0
110115  2  0
110116  2  0
118119  1  0
119120  1  0
120121  1  0
121122  1  0
118122  1  0
122123  1  0
123124  2  0
124125  1  0
125126  2  0
126127  1  0
127128  2  0
123128  1  0
126129  1  0
129130  1  0
130131  1  0
131132  1  0
132133  1  0
133134  1  0
129134  1  0
132135  1  0
135136  2  0
136137  1  0
137138  2  0
138139  1  0
139140  2  0
135140  1  0
138141  1  0
125142  1  0
127143  1  0
121144  1  1
118145  1  6
145146  2  0
146147  1  0
147148  2  0
148149  1  0
149150  2  0
145150  1  0
150151  1  0
147152  1  0
152153  2  0
153154  1  0
148154  1  0
155153  1  6
155156  1  0
156157  1  0
157158  1  0
158159  1  0
155159  1  0
160161  2  0
160156  1  0
160162  1  0
162163  1  6
162164  1  0
163165  1  0
165166  2  0
165167  1  0
167168  1  0
164169  1  0
164170  1  6
169171  1  0
144172  2  0
172173  1  0
173174  2  0
174175  1  0
175176  2  0
176177  1  0
173178  1  0
178179  2  0
179180  1  0
174180  1  0
181179  1  1
181182  1  0
182183  1  0
183184  1  0
184185  1  0
181185  1  0
186187  2  0
186182  1  0
186188  1  0
188189  1  1
188190  1  0
189191  1  0
191192  2  0
191193  1  0
193194  1  0
190195  1  0
190196  1  1
195197  1  0
176144  1  0
M  END
