 
     RDKit          2D

165170  0  0  0  0  0  0  0  0999 V2000
   29.5695  -18.6304    0.0000 C   0  0  0  0  0  0  0  0  0  0  0  0
   28.3142  -19.3278    0.0000 C   0  0  0  0  0  0  0  0  0  0  0  0
   30.7550  -19.3278    0.0000 C   0  0  0  0  0  0  0  0  0  0  0  0
   29.5698  -17.2357    0.0000 S   0  0  0  0  0  0  0  0  0  0  0  0
   28.3142  -20.6528    0.0000 C   0  0  0  0  0  0  0  0  0  0  0  0
   30.7550  -20.6528    0.0000 C   0  0  0  0  0  0  0  0  0  0  0  0
   29.5698  -15.8409    0.0000 O   0  0  0  0  0  0  0  0  0  0  0  0
   28.1750  -17.2357    0.0000 O   0  0  0  0  0  0  0  0  0  0  0  0
   30.9645  -17.2357    0.0000 O   0  0  0  0  0  0  0  0  0  0  0  0
   29.5695  -21.3502    0.0000 C   0  0  0  0  0  0  0  0  0  0  0  0
   19.3368  -16.0762    0.0000 C   0  0  0  0  0  0  0  0  0  0  0  0
   20.5198  -15.3803    0.0000 C   0  0  0  0  0  0  0  0  0  0  0  0
   18.1539  -15.3803    0.0000 C   0  0  0  0  0  0  0  0  0  0  0  0
   19.3368  -18.4421    0.0000 C   0  0  0  0  0  0  0  0  0  0  0  0
   20.5198  -13.9886    0.0000 C   0  0  0  0  0  0  0  0  0  0  0  0
   21.7028  -16.0762    0.0000 C   0  0  0  0  0  0  0  0  0  0  0  0
   18.1539  -13.9886    0.0000 C   0  0  0  0  0  0  0  0  0  0  0  0
   16.9709  -16.0066    0.0000 C   0  0  0  0  0  0  0  0  0  0  0  0
   20.5198  -19.1380    0.0000 C   0  0  0  0  0  0  0  0  0  0  0  0
   18.1539  -19.1380    0.0000 C   0  0  0  0  0  0  0  0  0  0  0  0
   19.3368  -13.2927    0.0000 N   0  0  0  0  0  0  0  0  0  0  0  0
   21.7028  -13.2927    0.0000 C   0  0  0  0  0  0  0  0  0  0  0  0
   22.8858  -15.3803    0.0000 O   0  0  0  0  0  0  0  0  0  0  0  0
   21.7028  -17.3983    0.0000 O   0  0  0  0  0  0  0  0  0  0  0  0
   16.9709  -13.2927    0.0000 C   0  0  0  0  0  0  0  0  0  0  0  0
   15.7879  -15.3803    0.0000 O   0  0  0  0  0  0  0  0  0  0  0  0
   16.9709  -17.3983    0.0000 O   0  0  0  0  0  0  0  0  0  0  0  0
   20.5198  -20.4601    0.0000 C   0  0  0  0  0  0  0  0  0  0  0  0
   21.7028  -18.4421    0.0000 Cl  0  0  0  0  0  0  0  0  0  0  0  0
   18.1539  -20.4601    0.0000 C   0  0  0  0  0  0  0  0  0  0  0  0
   22.8858  -13.9886    0.0000 O   0  0  0  0  0  0  0  0  0  0  0  0
   24.0687  -16.0762    0.0000 C   0  0  0  0  0  0  0  0  0  0  0  0
   14.6049  -16.0066    0.0000 C   0  0  0  0  0  0  0  0  0  0  0  0
   19.3368  -21.1560    0.0000 C   0  0  0  0  0  0  0  0  0  0  0  0
   24.0687  -13.2927    0.0000 C   0  0  0  0  0  0  0  0  0  0  0  0
   25.2517  -15.3803    0.0000 C   0  0  0  0  0  0  0  0  0  0  0  0
   25.2517  -13.9886    0.0000 C   0  0  0  0  0  0  0  0  0  0  0  0
   26.4347  -13.2927    0.0000 N   0  0  0  0  0  0  0  0  0  0  0  0
   28.6629  -16.1156    0.0000 C   0  0  0  0  0  0  0  0  0  0  0  0
   29.3546  -17.3137    0.0000 O   0  0  0  0  0  0  0  0  0  0  0  0
   31.2223  -17.3137    0.0000 O   0  0  0  0  0  0  0  0  0  0  0  0
   31.9140  -16.1156    0.0000 C   0  0  0  0  0  0  0  0  0  0  0  0
   31.2223  -14.9175    0.0000 C   0  0  0  0  0  0  0  0  0  0  0  0
   29.3546  -14.9175    0.0000 C   0  0  0  0  0  0  0  0  0  0  0  0
   33.2975  -16.1156    0.0000 O   0  0  0  0  0  0  0  0  0  0  0  0
   27.2794  -16.1156    0.0000 O   0  0  0  0  0  0  0  0  0  0  0  0
   21.0168  -13.2762    0.0000 C   0  0  0  0  0  0  0  0  0  0  0  0
   22.1998  -12.5803    0.0000 C   0  0  0  0  0  0  0  0  0  0  0  0
   19.8339  -12.5803    0.0000 C   0  0  0  0  0  0  0  0  0  0  0  0
   21.0168  -15.6421    0.0000 C   0  0  0  0  0  0  0  0  0  0  0  0
   22.1998  -11.1886    0.0000 C   0  0  0  0  0  0  0  0  0  0  0  0
   23.3828  -13.2762    0.0000 C   0  0  0  0  0  0  0  0  0  0  0  0
   19.8339  -11.1886    0.0000 C   0  0  0  0  0  0  0  0  0  0  0  0
   18.6509  -13.2066    0.0000 C   0  0  0  0  0  0  0  0  0  0  0  0
   22.1998  -16.3380    0.0000 C   0  0  0  0  0  0  0  0  0  0  0  0
   19.8339  -16.3380    0.0000 C   0  0  0  0  0  0  0  0  0  0  0  0
   21.0168  -10.4927    0.0000 N   0  0  0  0  0  0  0  0  0  0  0  0
   23.3828  -10.4927    0.0000 C   0  0  0  0  0  0  0  0  0  0  0  0
   24.5658  -12.5803    0.0000 O   0  0  0  0  0  0  0  0  0  0  0  0
   23.3828  -14.5983    0.0000 O   0  0  0  0  0  0  0  0  0  0  0  0
   18.6509  -10.4927    0.0000 C   0  0  0  0  0  0  0  0  0  0  0  0
   17.4679  -12.5803    0.0000 O   0  0  0  0  0  0  0  0  0  0  0  0
   18.6509  -14.5983    0.0000 O   0  0  0  0  0  0  0  0  0  0  0  0
   22.1998  -17.6601    0.0000 C   0  0  0  0  0  0  0  0  0  0  0  0
   23.3828  -15.6421    0.0000 Cl  0  0  0  0  0  0  0  0  0  0  0  0
   19.8339  -17.6601    0.0000 C   0  0  0  0  0  0  0  0  0  0  0  0
   24.5658  -11.1886    0.0000 O   0  0  0  0  0  0  0  0  0  0  0  0
   25.7487  -13.2762    0.0000 C   0  0  0  0  0  0  0  0  0  0  0  0
   16.2849  -13.2066    0.0000 C   0  0  0  0  0  0  0  0  0  0  0  0
   21.0168  -18.3560    0.0000 C   0  0  0  0  0  0  0  0  0  0  0  0
   25.7487  -10.4927    0.0000 C   0  0  0  0  0  0  0  0  0  0  0  0
   26.9317  -12.5803    0.0000 C   0  0  0  0  0  0  0  0  0  0  0  0
   26.9317  -11.1886    0.0000 C   0  0  0  0  0  0  0  0  0  0  0  0
   28.1147  -10.4927    0.0000 N   0  0  0  0  0  0  0  0  0  0  0  0
   22.9600  -16.8000    0.0000 C   0  0  0  0  0  0  0  0  0  0  0  0
   24.1500  -16.1000    0.0000 C   0  0  0  0  0  0  0  0  0  0  0  0
   21.7700  -16.1000    0.0000 C   0  0  0  0  0  0  0  0  0  0  0  0
   22.9600  -19.1800    0.0000 C   0  0  0  0  0  0  0  0  0  0  0  0
   24.1500  -14.7000    0.0000 C   0  0  0  0  0  0  0  0  0  0  0  0
   25.3400  -16.8000    0.0000 C   0  0  0  0  0  0  0  0  0  0  0  0
   21.7700  -14.7000    0.0000 C   0  0  0  0  0  0  0  0  0  0  0  0
   20.5800  -16.7300    0.0000 C   0  0  0  0  0  0  0  0  0  0  0  0
   24.1500  -19.8800    0.0000 C   0  0  0  0  0  0  0  0  0  0  0  0
   21.7700  -19.8800    0.0000 C   0  0  0  0  0  0  0  0  0  0  0  0
   22.9600  -14.0000    0.0000 N   0  0  0  0  0  0  0  0  0  0  0  0
   25.3400  -14.0000    0.0000 C   0  0  0  0  0  0  0  0  0  0  0  0
   26.5300  -16.1000    0.0000 O   0  0  0  0  0  0  0  0  0  0  0  0
   25.3400  -18.1300    0.0000 O   0  0  0  0  0  0  0  0  0  0  0  0
   20.5800  -14.0000    0.0000 C   0  0  0  0  0  0  0  0  0  0  0  0
   19.3900  -16.1000    0.0000 O   0  0  0  0  0  0  0  0  0  0  0  0
   20.5800  -18.1300    0.0000 O   0  0  0  0  0  0  0  0  0  0  0  0
   24.1500  -21.2100    0.0000 C   0  0  0  0  0  0  0  0  0  0  0  0
   25.3400  -19.1800    0.0000 Cl  0  0  0  0  0  0  0  0  0  0  0  0
   21.7700  -21.2100    0.0000 C   0  0  0  0  0  0  0  0  0  0  0  0
   26.5300  -14.7000    0.0000 O   0  0  0  0  0  0  0  0  0  0  0  0
   27.7200  -16.8000    0.0000 C   0  0  0  0  0  0  0  0  0  0  0  0
   18.2000  -16.7300    0.0000 C   0  0  0  0  0  0  0  0  0  0  0  0
   22.9600  -21.9100    0.0000 C   0  0  0  0  0  0  0  0  0  0  0  0
   27.7200  -14.0000    0.0000 C   0  0  0  0  0  0  0  0  0  0  0  0
   28.9100  -16.1000    0.0000 C   0  0  0  0  0  0  0  0  0  0  0  0
   28.9100  -14.7000    0.0000 C   0  0  0  0  0  0  0  0  0  0  0  0
   30.1000  -14.0000    0.0000 N   0  0  0  0  0  0  0  0  0  0  0  0
   23.3231  -19.6615    0.0000 C   0  0  0  0  0  0  0  0  0  0  0  0
   22.4372  -18.5840    0.0000 C   0  0  0  0  0  0  0  0  0  0  0  0
   22.7197  -17.2133    0.0000 C   0  0  0  0  0  0  0  0  0  0  0  0
   23.9591  -16.5857    0.0000 N   0  0  0  0  0  0  0  0  0  0  0  0
   24.7308  -19.7019    0.0000 C   0  0  0  0  0  0  0  0  0  0  0  0
   25.2377  -17.1596    0.0000 C   0  0  0  0  0  0  0  0  0  0  0  0
   25.5777  -18.5180    0.0000 C   0  0  0  0  0  0  0  0  0  0  0  0
   21.6743  -16.2838    0.0000 C   0  0  0  0  0  0  0  0  0  0  0  0
   20.3466  -16.7242    0.0000 C   0  0  0  0  0  0  0  0  0  0  0  0
   20.0641  -18.0949    0.0000 C   0  0  0  0  0  0  0  0  0  0  0  0
   21.1095  -19.0246    0.0000 C   0  0  0  0  0  0  0  0  0  0  0  0
   23.9262  -15.1817    0.0000 C   0  0  0  0  0  0  0  0  0  0  0  0
   25.1248  -14.4519    0.0000 C   0  0  0  0  0  0  0  0  0  0  0  0
   26.3615  -15.1276    0.0000 O   0  0  0  0  0  0  0  0  0  0  0  0
   25.1625  -13.0836    0.0000 O   0  0  0  0  0  0  0  0  0  0  0  0
   26.3330  -16.2423    0.0000 O   0  0  0  0  0  0  0  0  0  0  0  0
   26.9766  -18.5180    0.0000 N   0  0  0  0  0  0  0  0  0  0  0  0
   27.6929  -19.7595    0.0000 C   0  0  0  0  0  0  0  0  0  0  0  0
   29.1069  -19.7602    0.0000 C   0  0  0  0  0  0  0  0  0  0  0  0
   27.0102  -20.9405    0.0000 C   0  0  0  0  0  0  0  0  0  0  0  0
   29.8213  -18.5252    0.0000 C   0  0  0  0  0  0  0  0  0  0  0  0
   31.2056  -18.5264    0.0000 C   0  0  0  0  0  0  0  0  0  0  0  0
   25.6102  -20.9399    0.0000 O   0  0  0  0  0  0  0  0  0  0  0  0
   27.6989  -22.1343    0.0000 O   0  0  0  0  0  0  0  0  0  0  0  0
   29.1070  -22.1349    0.0000 C   0  0  0  0  0  0  0  0  0  0  0  0
   29.7937  -23.3254    0.0000 C   0  0  0  0  0  0  0  0  0  0  0  0
   31.9096  -19.7481    0.0000 C   0  0  0  0  0  0  0  0  0  0  0  0
   33.3085  -19.7492    0.0000 C   0  0  0  0  0  0  0  0  0  0  0  0
   34.0091  -18.5383    0.0000 C   0  0  0  0  0  0  0  0  0  0  0  0
   33.3051  -17.3167    0.0000 C   0  0  0  0  0  0  0  0  0  0  0  0
   31.9062  -17.3155    0.0000 C   0  0  0  0  0  0  0  0  0  0  0  0
   34.6331  -22.3162    0.0000 Cl  0  0  0  0  0  0  0  0  0  0  0  0
   20.1600  -19.3900    0.0000 C   0  0  0  0  0  0  0  0  0  0  0  0
   19.2500  -18.2700    0.0000 C   0  0  0  0  0  0  0  0  0  0  0  0
   19.5300  -16.9400    0.0000 C   0  0  0  0  0  0  0  0  0  0  0  0
   20.7900  -16.3100    0.0000 N   0  0  0  0  0  0  0  0  0  0  0  0
   21.5600  -19.3900    0.0000 C   0  0  0  0  0  0  0  0  0  0  0  0
   22.0500  -16.8700    0.0000 C   0  0  0  0  0  0  0  0  0  0  0  0
   22.4000  -18.2000    0.0000 C   0  0  0  0  0  0  0  0  0  0  0  0
   18.4800  -15.9600    0.0000 C   0  0  0  0  0  0  0  0  0  0  0  0
   17.1500  -16.4500    0.0000 C   0  0  0  0  0  0  0  0  0  0  0  0
   16.8700  -17.7800    0.0000 C   0  0  0  0  0  0  0  0  0  0  0  0
   17.9200  -18.6900    0.0000 C   0  0  0  0  0  0  0  0  0  0  0  0
   20.7200  -14.9100    0.0000 C   0  0  0  0  0  0  0  0  0  0  0  0
   21.9100  -14.1400    0.0000 C   0  0  0  0  0  0  0  0  0  0  0  0
   23.1700  -14.8400    0.0000 O   0  0  0  0  0  0  0  0  0  0  0  0
   21.9800  -12.8100    0.0000 O   0  0  0  0  0  0  0  0  0  0  0  0
   23.1700  -15.9600    0.0000 O   0  0  0  0  0  0  0  0  0  0  0  0
   23.8000  -18.2000    0.0000 N   0  0  0  0  0  0  0  0  0  0  0  0
   24.5000  -19.4600    0.0000 C   0  0  0  0  0  0  0  0  0  0  0  0
   25.9000  -19.4600    0.0000 C   0  0  0  0  0  0  0  0  0  0  0  0
   23.8000  -20.6500    0.0000 C   0  0  0  0  0  0  0  0  0  0  0  0
   26.6000  -18.2000    0.0000 C   0  0  0  0  0  0  0  0  0  0  0  0
   28.0000  -18.2000    0.0000 C   0  0  0  0  0  0  0  0  0  0  0  0
   22.4000  -20.6500    0.0000 O   0  0  0  0  0  0  0  0  0  0  0  0
   24.5000  -21.8400    0.0000 O   0  0  0  0  0  0  0  0  0  0  0  0
   25.9000  -21.8400    0.0000 C   0  0  0  0  0  0  0  0  0  0  0  0
   26.6000  -23.0300    0.0000 C   0  0  0  0  0  0  0  0  0  0  0  0
   28.7000  -19.4600    0.0000 C   0  0  0  0  0  0  0  0  0  0  0  0
   30.1000  -19.4600    0.0000 C   0  0  0  0  0  0  0  0  0  0  0  0
   30.8000  -18.2700    0.0000 C   0  0  0  0  0  0  0  0  0  0  0  0
   30.1000  -17.0100    0.0000 C   0  0  0  0  0  0  0  0  0  0  0  0
   28.7000  -17.0100    0.0000 C   0  0  0  0  0  0  0  0  0  0  0  0
  1  2  2  0
  1  3  1  0
  1  4  1  0
  2  5  1  0
  3  6  2  0
  4  7  1  0
  4  8  2  0
  4  9  2  0
  5 10  2  0
  6 10  1  0
 11 12  1  0
 11 13  1  0
 11 14  1  0
 12 15  2  0
 12 16  1  0
 13 17  2  0
 13 18  1  0
 14 19  2  0
 14 20  1  0
 15 21  1  0
 15 22  1  0
 16 23  1  0
 16 24  2  0
 17 25  1  0
 18 26  1  0
 18 27  2  0
 19 28  1  0
 19 29  1  0
 20 30  2  0
 22 31  1  0
 23 32  1  0
 26 33  1  0
 28 34  2  0
 31 35  1  0
 32 36  1  0
 35 37  1  0
 37 38  1  0
 17 21  1  0
 30 34  1  0
 39 40  2  0
 41 42  1  0
 42 43  1  0
 43 44  2  0
 39 44  1  0
 42 45  2  0
 39 46  1  0
 47 48  1  0
 47 49  1  0
 47 50  1  0
 48 51  2  0
 48 52  1  0
 49 53  2  0
 49 54  1  0
 50 55  2  0
 50 56  1  0
 51 57  1  0
 51 58  1  0
 52 59  1  0
 52 60  2  0
 53 61  1  0
 54 62  1  0
 54 63  2  0
 55 64  1  0
 55 65  1  0
 56 66  2  0
 58 67  1  0
 59 68  1  0
 62 69  1  0
 64 70  2  0
 67 71  1  0
 68 72  1  0
 71 73  1  0
 73 74  1  0
 53 57  1  0
 66 70  1  0
 75 76  1  0
 75 77  1  0
 75 78  1  0
 76 79  2  0
 76 80  1  0
 77 81  2  0
 77 82  1  0
 78 83  2  0
 78 84  1  0
 79 85  1  0
 79 86  1  0
 80 87  1  0
 80 88  2  0
 81 89  1  0
 82 90  1  0
 82 91  2  0
 83 92  1  0
 83 93  1  0
 84 94  2  0
 86 95  1  0
 87 96  1  0
 90 97  1  0
 92 98  2  0
 95 99  1  0
 96100  1  0
 99101  1  0
101102  1  0
 81 85  1  0
 94 98  1  0
105106  1  0
103107  1  0
106108  1  0
104105  2  0
107109  1  0
103104  1  0
108109  1  0
105110  1  0
110111  2  0
111112  1  0
112113  2  0
104113  1  0
106114  1  0
114115  1  0
115116  1  0
115117  2  0
108118  2  0
109119  1  1
119120  1  0
120121  1  1
120122  1  0
121123  1  0
123124  1  0
122125  2  0
122126  1  0
126127  1  0
127128  1  0
124129  2  0
129130  1  0
130131  2  0
131132  1  0
132133  2  0
124133  1  0
137138  1  0
135139  1  0
138140  1  0
136137  2  0
139141  1  0
135136  1  0
140141  1  0
137142  1  0
142143  2  0
143144  1  0
144145  2  0
136145  1  0
138146  1  0
146147  1  0
147148  1  0
147149  2  0
140150  2  0
141151  1  1
151152  1  0
152153  1  1
152154  1  0
153155  1  0
155156  1  0
154157  2  0
154158  1  0
158159  1  0
159160  1  0
156161  2  0
161162  1  0
162163  2  0
163164  1  0
164165  2  0
156165  1  0
M  END
