 
     RDKit          2D

188201  0  0  1  0  0  0  0  0999 V2000
   17.0517  -11.1812    0.0000 C   0  0  0  0  0  0  0  0  0  0  0  0
   17.0517   -9.7778    0.0000 N   0  0  0  0  0  0  0  0  0  0  0  0
   18.2447   -9.0760    0.0000 C   0  0  0  0  0  0  0  0  0  0  0  0
   19.5078   -9.7778    0.0000 C   0  0  0  0  0  0  0  0  0  0  0  0
   19.5078  -11.1812    0.0000 C   0  0  0  0  0  0  0  0  0  0  0  0
   18.2447  -11.8829    0.0000 C   0  0  0  0  0  0  0  0  0  0  0  0
   15.8588  -11.8829    0.0000 C   0  0  0  0  0  0  0  0  0  0  0  0
   14.5957  -11.1812    0.0000 N   0  0  0  0  0  0  0  0  0  0  0  0
   14.5957   -9.7778    0.0000 C   0  0  0  0  0  0  0  0  0  0  0  0
   15.8588   -9.0760    0.0000 C   0  0  0  0  0  0  0  0  0  0  0  0
   13.4028  -11.8829    0.0000 C   0  0  0  0  0  0  0  0  0  0  0  0
   12.2099  -11.1812    0.0000 C   0  0  0  0  0  0  0  0  0  0  0  0
   12.2099   -9.7778    0.0000 C   0  0  0  0  0  0  0  0  0  0  0  0
   13.4028   -9.0760    0.0000 O   0  0  0  0  0  0  0  0  0  0  0  0
   15.8588  -13.2864    0.0000 O   0  0  0  0  0  0  0  0  0  0  0  0
   18.2447  -13.2864    0.0000 O   0  0  0  0  0  0  0  0  0  0  0  0
   20.7007  -11.8829    0.0000 O   0  0  0  0  0  0  0  0  0  0  0  0
   20.7007   -9.0760    0.0000 C   0  0  0  0  0  0  0  0  0  0  0  0
   21.8936   -9.7778    0.0000 N   0  0  0  0  0  0  0  0  0  0  0  0
   20.7007   -7.6726    0.0000 O   0  0  0  0  0  0  0  0  0  0  0  0
   23.0865   -9.0760    0.0000 C   0  0  0  0  0  0  0  0  0  0  0  0
   24.2794   -9.7778    0.0000 C   0  0  0  0  0  0  0  0  0  0  0  0
   25.4724   -9.0760    0.0000 C   0  0  0  0  0  0  0  0  0  0  0  0
   26.7355   -9.7778    0.0000 C   0  0  0  0  0  0  0  0  0  0  0  0
   26.7355  -11.1812    0.0000 C   0  0  0  0  0  0  0  0  0  0  0  0
   25.5425  -11.8829    0.0000 C   0  0  0  0  0  0  0  0  0  0  0  0
   24.2794  -11.1812    0.0000 C   0  0  0  0  0  0  0  0  0  0  0  0
   23.0865  -11.8829    0.0000 F   0  0  0  0  0  0  0  0  0  0  0  0
   27.9284  -11.8829    0.0000 F   0  0  0  0  0  0  0  0  0  0  0  0
   10.9975  -10.4778    0.0000 C   0  0  0  0  0  0  0  0  0  0  0  0
   12.1904  -12.5829    0.0000 C   0  0  0  0  0  0  0  0  0  0  0  0
   25.4724   -7.6760    0.0000 F   0  0  0  0  0  0  0  0  0  0  0  0
   16.3094  -16.8498    0.0000 C   0  0  0  0  0  0  0  0  0  0  0  0
   16.3094  -15.4730    0.0000 N   0  0  0  0  0  0  0  0  0  0  0  0
   17.4798  -14.7844    0.0000 C   0  0  0  0  0  0  0  0  0  0  0  0
   18.7190  -15.4730    0.0000 C   0  0  0  0  0  0  0  0  0  0  0  0
   18.7190  -16.8498    0.0000 C   0  0  0  0  0  0  0  0  0  0  0  0
   17.4798  -17.5383    0.0000 C   0  0  0  0  0  0  0  0  0  0  0  0
   15.1390  -17.5383    0.0000 C   0  0  0  0  0  0  0  0  0  0  0  0
   13.8998  -16.8498    0.0000 N   0  0  0  0  0  0  0  0  0  0  0  0
   13.8998  -15.4730    0.0000 C   0  0  0  0  0  0  0  0  0  0  0  0
   15.1390  -14.7844    0.0000 C   0  0  0  0  0  0  0  0  0  0  0  0
   12.7294  -17.5383    0.0000 C   0  0  0  0  0  0  0  0  0  0  0  0
   11.5591  -16.8498    0.0000 C   0  0  0  0  0  0  0  0  0  0  0  0
   11.5591  -15.4730    0.0000 C   0  0  0  0  0  0  0  0  0  0  0  0
   12.7294  -14.7844    0.0000 O   0  0  0  0  0  0  0  0  0  0  0  0
   15.1390  -18.9152    0.0000 O   0  0  0  0  0  0  0  0  0  0  0  0
   17.4798  -18.9152    0.0000 O   0  0  0  0  0  0  0  0  0  0  0  0
   19.8894  -17.5383    0.0000 O   0  0  0  0  0  0  0  0  0  0  0  0
   19.8894  -14.7844    0.0000 C   0  0  0  0  0  0  0  0  0  0  0  0
   21.0597  -15.4730    0.0000 N   0  0  0  0  0  0  0  0  0  0  0  0
   19.8894  -13.4076    0.0000 O   0  0  0  0  0  0  0  0  0  0  0  0
   22.2301  -14.7844    0.0000 C   0  0  0  0  0  0  0  0  0  0  0  0
   23.4004  -15.4730    0.0000 C   0  0  0  0  0  0  0  0  0  0  0  0
   24.5709  -14.7844    0.0000 C   0  0  0  0  0  0  0  0  0  0  0  0
   25.8101  -15.4730    0.0000 C   0  0  0  0  0  0  0  0  0  0  0  0
   25.8101  -16.8498    0.0000 C   0  0  0  0  0  0  0  0  0  0  0  0
   24.6397  -17.5383    0.0000 C   0  0  0  0  0  0  0  0  0  0  0  0
   23.4004  -16.8498    0.0000 C   0  0  0  0  0  0  0  0  0  0  0  0
   22.2301  -17.5383    0.0000 F   0  0  0  0  0  0  0  0  0  0  0  0
   26.9804  -17.5383    0.0000 F   0  0  0  0  0  0  0  0  0  0  0  0
   10.3696  -16.1597    0.0000 C   0  0  0  0  0  0  0  0  0  0  0  0
   11.5400  -18.2250    0.0000 C   0  0  0  0  0  0  0  0  0  0  0  0
   24.5709  -13.4109    0.0000 F   0  0  0  0  0  0  0  0  0  0  0  0
   18.9700  -19.8100    0.0000 Na  0  0  0  0  0 15  0  0  0  0  0  0
   25.0103  -17.6390    0.0000 N   0  0  0  0  0  0  0  0  0  0  0  0
   23.6350  -18.1111    0.0000 C   0  0  0  0  0  0  0  0  0  0  0  0
   21.3970  -18.1111    0.0000 C   0  0  0  0  0  0  0  0  0  0  0  0
   20.1381  -17.4117    0.0000 C   0  0  0  0  0  0  0  0  0  0  0  0
   18.9492  -18.1111    0.0000 O   0  0  0  0  0  0  0  0  0  0  0  0
   21.8166  -19.4399    0.0000 S   0  0  0  0  0  0  0  0  0  0  0  0
   22.5160  -17.2718    0.0000 O   0  0  0  0  0  0  0  0  0  0  0  0
   23.2154  -19.4399    0.0000 C   0  0  0  0  0  0  0  0  0  0  0  0
   25.0206  -16.2402    0.0000 C   0  0  0  0  0  0  0  0  0  0  0  0
   26.2146  -15.5496    0.0000 C   0  0  0  0  0  0  0  0  0  0  0  0
   27.4684  -16.2582    0.0000 C   0  0  0  0  0  0  0  0  0  0  0  0
   27.4581  -17.6570    0.0000 N   0  0  0  0  0  0  0  0  0  0  0  0
   26.2641  -18.3476    0.0000 C   0  0  0  0  0  0  0  0  0  0  0  0
   28.6624  -15.5676    0.0000 N   0  0  0  0  0  0  0  0  0  0  0  0
   26.1549  -14.1509    0.0000 F   0  0  0  0  0  0  0  0  0  0  0  0
   26.2538  -19.7463    0.0000 O   0  0  0  0  0  0  0  0  0  0  0  0
   22.5400  -22.2600    0.0000 N   0  0  0  0  0  0  0  0  0  0  0  0
   22.5400  -23.7300    0.0000 C   0  0  0  0  0  0  0  0  0  0  0  0
   21.3500  -24.4300    0.0000 N   0  0  0  0  0  0  0  0  0  0  0  0
   20.0900  -23.7300    0.0000 C   0  0  0  0  0  0  0  0  0  0  0  0
   20.0900  -22.2600    0.0000 C   0  0  0  0  0  0  0  0  0  0  0  0
   21.3500  -21.5600    0.0000 C   0  0  0  0  0  0  0  0  0  0  0  0
   18.7600  -24.1500    0.0000 N   0  0  0  0  0  0  0  0  0  0  0  0
   17.9900  -23.0300    0.0000 C   0  0  0  0  0  0  0  0  0  0  0  0
   18.7600  -21.8400    0.0000 N   0  0  0  0  0  0  0  0  0  0  0  0
   21.3500  -20.1600    0.0000 N   0  0  0  0  0  0  0  0  0  0  0  0
   18.7600  -25.5500    0.0000 C   0  0  0  0  0  0  0  0  0  0  0  0
   17.5700  -26.2500    0.0000 C   0  0  0  0  0  0  0  0  0  0  0  0
   16.3100  -25.5500    0.0000 O   0  0  0  0  0  0  0  0  0  0  0  0
   15.2600  -26.2500    0.0000 C   0  0  0  0  0  0  0  0  0  0  0  0
   14.0000  -25.5500    0.0000 P   0  0  0  0  0  0  0  0  0  0  0  0
   17.5700  -27.5800    0.0000 C   0  0  0  0  0  0  0  0  0  0  0  0
   12.7400  -24.8500    0.0000 O   0  0  0  0  0  0  0  0  0  0  0  0
   14.7000  -24.2900    0.0000 O   0  0  0  0  0  0  0  0  0  0  0  0
   12.8800  -26.7400    0.0000 N   0  0  0  0  0  0  0  0  0  0  0  0
   11.3400  -24.8500    0.0000 C   0  0  0  0  0  0  0  0  0  0  0  0
   10.6400  -23.6376    0.0000 C   0  0  0  0  0  0  0  0  0  0  0  0
    9.2400  -23.6376    0.0000 C   0  0  0  0  0  0  0  0  0  0  0  0
    8.5400  -24.8500    0.0000 C   0  0  0  0  0  0  0  0  0  0  0  0
    9.2400  -26.0624    0.0000 C   0  0  0  0  0  0  0  0  0  0  0  0
   10.6400  -26.0624    0.0000 C   0  0  0  0  0  0  0  0  0  0  0  0
   12.8800  -28.1400    0.0000 C   0  0  0  0  0  0  0  0  0  0  0  0
   11.6676  -28.8400    0.0000 C   0  0  0  0  0  0  0  0  0  0  0  0
   14.0924  -28.8400    0.0000 C   0  0  0  0  0  0  0  0  0  0  0  0
   10.4721  -28.1496    0.0000 O   0  0  0  0  0  0  0  0  0  0  0  0
   11.6675  -30.2398    0.0000 O   0  0  0  0  0  0  0  0  0  0  0  0
    9.2847  -28.8351    0.0000 C   0  0  0  0  0  0  0  0  0  0  0  0
    8.0935  -28.1471    0.0000 C   0  0  0  0  0  0  0  0  0  0  0  0
    9.2845  -30.2398    0.0000 C   0  0  0  0  0  0  0  0  0  0  0  0
   28.2100  -13.7900    0.0000 N   0  0  0  0  0  0  0  0  0  0  0  0
   28.2100  -15.2600    0.0000 C   0  0  0  0  0  0  0  0  0  0  0  0
   27.0200  -15.9600    0.0000 N   0  0  0  0  0  0  0  0  0  0  0  0
   25.8300  -15.2600    0.0000 C   0  0  0  0  0  0  0  0  0  0  0  0
   25.8300  -13.7900    0.0000 C   0  0  0  0  0  0  0  0  0  0  0  0
   27.0200  -13.0900    0.0000 C   0  0  0  0  0  0  0  0  0  0  0  0
   24.5000  -15.6800    0.0000 N   0  0  0  0  0  0  0  0  0  0  0  0
   23.7300  -14.5600    0.0000 C   0  0  0  0  0  0  0  0  0  0  0  0
   24.5000  -13.3700    0.0000 N   0  0  0  0  0  0  0  0  0  0  0  0
   27.0200  -11.7600    0.0000 N   0  0  0  0  0  0  0  0  0  0  0  0
   24.5000  -17.0800    0.0000 C   0  0  0  0  0  0  0  0  0  0  0  0
   23.3100  -17.7800    0.0000 C   0  0  0  0  0  0  0  0  0  0  0  0
   22.0500  -17.0800    0.0000 O   0  0  0  0  0  0  0  0  0  0  0  0
   21.0000  -17.7800    0.0000 C   0  0  0  0  0  0  0  0  0  0  0  0
   19.7400  -17.0800    0.0000 P   0  0  0  0  0  0  0  0  0  0  0  0
   23.3100  -19.1100    0.0000 C   0  0  0  0  0  0  0  0  0  0  0  0
   18.4800  -16.3800    0.0000 O   0  0  0  0  0  0  0  0  0  0  0  0
   20.4400  -15.8200    0.0000 O   0  0  0  0  0  0  0  0  0  0  0  0
   18.6200  -18.2700    0.0000 N   0  0  0  0  0  0  0  0  0  0  0  0
   17.0800  -16.3800    0.0000 C   0  0  0  0  0  0  0  0  0  0  0  0
   16.3800  -15.1900    0.0000 C   0  0  0  0  0  0  0  0  0  0  0  0
   14.9800  -15.1900    0.0000 C   0  0  0  0  0  0  0  0  0  0  0  0
   14.2800  -16.3800    0.0000 C   0  0  0  0  0  0  0  0  0  0  0  0
   14.9800  -17.5700    0.0000 C   0  0  0  0  0  0  0  0  0  0  0  0
   16.3800  -17.5700    0.0000 C   0  0  0  0  0  0  0  0  0  0  0  0
   18.6200  -19.6700    0.0000 C   0  0  0  0  0  0  0  0  0  0  0  0
   17.4300  -20.3700    0.0000 C   0  0  0  0  0  0  0  0  0  0  0  0
   19.8100  -20.3700    0.0000 C   0  0  0  0  0  0  0  0  0  0  0  0
   16.2400  -19.6700    0.0000 O   0  0  0  0  0  0  0  0  0  0  0  0
   17.4300  -21.7700    0.0000 O   0  0  0  0  0  0  0  0  0  0  0  0
   15.0500  -20.3700    0.0000 C   0  0  0  0  0  0  0  0  0  0  0  0
   13.8600  -19.6700    0.0000 C   0  0  0  0  0  0  0  0  0  0  0  0
   15.0500  -21.7700    0.0000 C   0  0  0  0  0  0  0  0  0  0  0  0
   34.5800  -17.5000    0.0000 C   0  0  0  0  0  0  0  0  0  0  0  0
   35.7924  -18.2000    0.0000 C   0  0  0  0  0  0  0  0  0  0  0  0
   33.3676  -18.2000    0.0000 O   0  0  0  0  0  0  0  0  0  0  0  0
   34.5800  -16.1000    0.0000 O   0  0  0  0  0  0  0  0  0  0  0  0
   36.9879  -17.5096    0.0000 C   0  0  0  0  0  0  0  0  0  0  0  0
   38.1753  -18.1951    0.0000 C   0  0  0  0  0  0  0  0  0  0  0  0
   39.3665  -17.5071    0.0000 O   0  0  0  0  0  0  0  0  0  0  0  0
   38.1755  -19.5998    0.0000 O   0  0  0  0  0  0  0  0  0  0  0  0
   28.2100  -13.7900    0.0000 N   0  0  0  0  0  0  0  0  0  0  0  0
   28.2100  -15.2600    0.0000 C   0  0  0  0  0  0  0  0  0  0  0  0
   27.0200  -15.9600    0.0000 N   0  0  0  0  0  0  0  0  0  0  0  0
   25.8300  -15.2600    0.0000 C   0  0  0  0  0  0  0  0  0  0  0  0
   25.8300  -13.7900    0.0000 C   0  0  0  0  0  0  0  0  0  0  0  0
   27.0200  -13.0900    0.0000 C   0  0  0  0  0  0  0  0  0  0  0  0
   27.0200  -11.7600    0.0000 N   0  0  0  0  0  0  0  0  0  0  0  0
   24.5000  -13.3700    0.0000 N   0  0  0  0  0  0  0  0  0  0  0  0
   23.7300  -14.5600    0.0000 C   0  0  0  0  0  0  0  0  0  0  0  0
   24.5000  -15.6800    0.0000 N   0  0  0  0  0  0  0  0  0  0  0  0
   24.5000  -17.0800    0.0000 C   0  0  0  0  0  0  0  0  0  0  0  0
   23.3100  -17.7800    0.0000 C   0  0  0  0  0  0  0  0  0  0  0  0
   22.0500  -17.0800    0.0000 O   0  0  0  0  0  0  0  0  0  0  0  0
   21.0000  -17.7800    0.0000 C   0  0  0  0  0  0  0  0  0  0  0  0
   19.7400  -17.0800    0.0000 P   0  0  0  0  0  0  0  0  0  0  0  0
   18.4800  -16.3800    0.0000 O   0  0  0  0  0  0  0  0  0  0  0  0
   17.0800  -16.3800    0.0000 C   0  0  0  0  0  0  0  0  0  0  0  0
   16.3800  -15.1900    0.0000 C   0  0  0  0  0  0  0  0  0  0  0  0
   14.9800  -15.1900    0.0000 C   0  0  0  0  0  0  0  0  0  0  0  0
   14.2800  -16.3800    0.0000 C   0  0  0  0  0  0  0  0  0  0  0  0
   14.9800  -17.5700    0.0000 C   0  0  0  0  0  0  0  0  0  0  0  0
   16.3800  -17.5700    0.0000 C   0  0  0  0  0  0  0  0  0  0  0  0
   20.4400  -15.8200    0.0000 O   0  0  0  0  0  0  0  0  0  0  0  0
   18.6200  -18.2700    0.0000 N   0  0  0  0  0  0  0  0  0  0  0  0
   18.6200  -19.6700    0.0000 C   0  0  0  0  0  0  0  0  0  0  0  0
   17.4300  -20.3700    0.0000 C   0  0  0  0  0  0  0  0  0  0  0  0
   16.2400  -19.6700    0.0000 O   0  0  0  0  0  0  0  0  0  0  0  0
   15.0500  -20.3700    0.0000 C   0  0  0  0  0  0  0  0  0  0  0  0
   13.8600  -19.6700    0.0000 C   0  0  0  0  0  0  0  0  0  0  0  0
   15.0500  -21.7700    0.0000 C   0  0  0  0  0  0  0  0  0  0  0  0
   17.4300  -21.7700    0.0000 O   0  0  0  0  0  0  0  0  0  0  0  0
   19.8100  -20.3700    0.0000 C   0  0  0  0  0  0  0  0  0  0  0  0
   23.3100  -19.1100    0.0000 C   0  0  0  0  0  0  0  0  0  0  0  0
  1  2  1  0
  2  3  1  0
  3  4  2  0
  4  5  1  0
  5  6  1  0
  1  6  2  0
  1  7  1  0
  7  8  1  0
  8  9  1  0
  9 10  1  6
  2 10  1  0
  8 11  1  0
 11 12  1  0
 12 13  1  0
 13 14  1  0
  9 14  1  0
  7 15  2  0
  6 16  1  0
  5 17  2  0
  4 18  1  0
 18 19  1  0
 18 20  2  0
 19 21  1  0
 21 22  1  0
 22 23  2  0
 23 24  1  0
 24 25  2  0
 25 26  1  0
 26 27  2  0
 22 27  1  0
 27 28  1  0
 25 29  1  0
 13 30  1  1
 11 31  1  1
 30 31  1  0
 23 32  1  0
 33 34  1  0
 34 35  1  0
 35 36  2  0
 36 37  1  0
 37 38  1  0
 33 38  2  0
 33 39  1  0
 39 40  1  0
 40 41  1  0
 41 42  1  6
 34 42  1  0
 40 43  1  0
 43 44  1  0
 44 45  1  0
 45 46  1  0
 41 46  1  0
 39 47  2  0
 38 48  1  0
 37 49  2  0
 36 50  1  0
 50 51  1  0
 50 52  2  0
 51 53  1  0
 53 54  1  0
 54 55  2  0
 55 56  1  0
 56 57  2  0
 57 58  1  0
 58 59  2  0
 54 59  1  0
 59 60  1  0
 57 61  1  0
 45 62  1  1
 43 63  1  1
 62 63  1  0
 55 64  1  0
 73 71  1  0
 69 70  1  0
 67 66  1  6
 68 69  1  6
 71 68  1  0
 66 74  1  0
 74 75  2  0
 75 76  1  0
 76 77  2  0
 77 78  1  0
 78 66  1  0
 68 72  1  0
 76 79  1  0
 72 67  1  0
 75 80  1  0
 67 73  1  0
 78 81  2  0
 82 83  2  0
 83 84  1  0
 84 85  2  0
 85 86  1  0
 86 87  2  0
 82 87  1  0
 85 88  1  0
 88 89  1  0
 89 90  2  0
 86 90  1  0
 87 91  1  0
 88 92  1  0
 92 93  1  0
 93 94  1  0
 94 95  1  0
 96 95  1  1
 93 97  1  1
 96 98  1  0
 96 99  2  0
 96100  1  0
 98101  1  0
101102  2  0
102103  1  0
103104  2  0
104105  1  0
105106  2  0
101106  1  0
100107  1  0
107108  1  0
107109  1  1
108110  1  0
108111  2  0
110112  1  0
112113  1  0
112114  1  0
148149  1  0
148150  1  0
148151  2  0
149152  2  0
152153  1  0
153154  1  0
153155  2  0
115116  2  0
116117  1  0
117118  2  0
118119  1  0
119120  2  0
115120  1  0
118121  1  0
121122  1  0
122123  2  0
119123  1  0
120124  1  0
121125  1  0
125126  1  0
126127  1  0
127128  1  0
129128  1  1
126130  1  1
129131  1  0
129132  2  0
129133  1  0
131134  1  0
134135  2  0
135136  1  0
136137  2  0
137138  1  0
138139  2  0
134139  1  0
133140  1  0
140141  1  0
140142  1  1
141143  1  0
141144  2  0
143145  1  0
145146  1  0
145147  1  0
156157  2  0
157158  1  0
158159  2  0
159160  1  0
160161  2  0
156161  1  0
159165  1  0
165164  1  0
164163  2  0
160163  1  0
161162  1  0
165166  1  0
166167  1  0
167168  1  0
168169  1  0
170169  1  1
167188  1  1
170171  1  0
170178  2  0
170179  1  0
171172  1  0
172173  2  0
173174  1  0
174175  2  0
175176  1  0
176177  2  0
172177  1  0
179180  1  0
180181  1  0
180187  1  1
181182  1  0
181186  2  0
182183  1  0
183184  1  0
183185  1  0
M  CHG  2  48  -1  65   1
M  END
