86580497
     RDKit          2D

 63 58  0  0  1  0  0  0  0  0999 V2000
   12.6002    1.0000    0.0000 Ca  0  0  0  0  0 15  0  0  0  0  0  0
    9.1360    1.0000    0.0000 F   0  0  0  0  0  0  0  0  0  0  0  0
   16.0643    1.0000    0.0000 F   0  0  0  0  0  0  0  0  0  0  0  0
    4.0010   13.8600    0.0000 O   0  0  0  0  0  0  0  0  0  0  0  0
    3.1350   11.3600    0.0000 O   0  0  0  0  0  0  0  0  0  0  0  0
    4.8671   11.3600    0.0000 O   0  0  0  0  0  0  0  0  0  0  0  0
    2.2690   13.8600    0.0000 O   0  0  0  0  0  0  0  0  0  0  0  0
    6.5991   12.3600    0.0000 O   0  0  0  0  0  0  0  0  0  0  0  0
    0.5369   12.8600    0.0000 O   0  0  0  0  0  0  0  0  0  0  0  0
   11.7341    1.5000    0.0000 O   0  0  0  0  0  0  0  0  0  0  0  0
   13.4662    1.5000    0.0000 O   0  0  0  0  0  0  0  0  0  0  0  0
   10.8681    0.0000    0.0000 O   0  0  0  0  0  0  0  0  0  0  0  0
   14.3322    0.0000    0.0000 O   0  0  0  0  0  0  0  0  0  0  0  0
    4.0010   12.8600    0.0000 C   0  0  0  0  0  0  0  0  0  0  0  0
    3.1350   12.3600    0.0000 C   0  0  0  0  0  0  0  0  0  0  0  0
    4.8671   12.3600    0.0000 C   0  0  0  0  0  0  0  0  0  0  0  0
    2.2690   12.8600    0.0000 C   0  0  0  0  0  0  0  0  0  0  0  0
    5.7331   12.8600    0.0000 C   0  0  0  0  0  0  0  0  0  0  0  0
    1.4030   12.3600    0.0000 C   0  0  0  0  0  0  0  0  0  0  0  0
   21.1993   12.3600    0.0000 C   0  0  0  0  0  0  0  0  0  0  0  0
   22.0653   12.8600    0.0000 C   0  0  0  0  0  0  0  0  0  0  0  0
   20.3332   12.8600    0.0000 C   0  0  0  0  0  0  0  0  0  0  0  0
   22.9313   12.3600    0.0000 C   0  0  0  0  0  0  0  0  0  0  0  0
   19.4672   12.3600    0.0000 C   0  0  0  0  0  0  0  0  0  0  0  0
   23.7973   12.8600    0.0000 C   0  0  0  0  0  0  0  0  0  0  0  0
   18.6012   12.8600    0.0000 C   0  0  0  0  0  0  0  0  0  0  0  0
   24.6634   12.3600    0.0000 C   0  0  0  0  0  0  0  0  0  0  0  0
   12.6002    6.9300    0.0000 C   0  0  0  0  0  0  0  0  0  0  0  0
   13.4662    7.4300    0.0000 C   0  0  0  0  0  0  0  0  0  0  0  0
   12.6002    5.9300    0.0000 C   0  0  0  0  0  0  0  0  0  0  0  0
   14.3322    6.9300    0.0000 C   0  0  0  0  0  0  0  0  0  0  0  0
   12.1671   13.3600    0.0000 C   0  0  0  0  0  0  0  0  0  0  0  0
   13.0332   14.8600    0.0000 C   0  0  0  0  0  0  0  0  0  0  0  0
   12.1671   14.3600    0.0000 C   0  0  0  0  0  0  0  0  0  0  0  0
   13.4662    5.4300    0.0000 C   0  0  0  0  0  0  0  0  0  0  0  0
   14.3322    5.9300    0.0000 C   0  0  0  0  0  0  0  0  0  0  0  0
   12.6002   21.1000    0.0000 C   0  0  0  0  0  0  0  0  0  0  0  0
   12.6002   23.1000    0.0000 C   0  0  0  0  0  0  0  0  0  0  0  0
   13.0332   12.8600    0.0000 C   0  0  0  0  0  0  0  0  0  0  0  0
   13.8992   14.3600    0.0000 C   0  0  0  0  0  0  0  0  0  0  0  0
   13.4662   21.6000    0.0000 C   0  0  0  0  0  0  0  0  0  0  0  0
   13.4662   22.6000    0.0000 C   0  0  0  0  0  0  0  0  0  0  0  0
   11.7341   21.6000    0.0000 C   0  0  0  0  0  0  0  0  0  0  0  0
   11.7341   22.6000    0.0000 C   0  0  0  0  0  0  0  0  0  0  0  0
   13.8992   13.3600    0.0000 C   0  0  0  0  0  0  0  0  0  0  0  0
   11.7341    7.4300    0.0000 C   0  0  0  0  0  0  0  0  0  0  0  0
   13.4662    8.4300    0.0000 C   0  0  0  0  0  0  0  0  0  0  0  0
   11.3011   12.8600    0.0000 C   0  0  0  0  0  0  0  0  0  0  0  0
   13.0332   15.8600    0.0000 C   0  0  0  0  0  0  0  0  0  0  0  0
   12.6002   20.1000    0.0000 C   0  0  0  0  0  0  0  0  0  0  0  0
   12.6002   24.1000    0.0000 C   0  0  0  0  0  0  0  0  0  0  0  0
   10.8681    6.9300    0.0000 C   0  0  0  0  0  0  0  0  0  0  0  0
   14.3322    8.9300    0.0000 C   0  0  0  0  0  0  0  0  0  0  0  0
   11.3011   11.8600    0.0000 C   0  0  0  0  0  0  0  0  0  0  0  0
   13.8992   16.3600    0.0000 C   0  0  0  0  0  0  0  0  0  0  0  0
   11.7341   19.6000    0.0000 C   0  0  0  0  0  0  0  0  0  0  0  0
   13.4662   24.6000    0.0000 C   0  0  0  0  0  0  0  0  0  0  0  0
   10.0021    1.5000    0.0000 C   0  0  0  0  0  0  0  0  0  0  0  0
   15.1982    1.5000    0.0000 C   0  0  0  0  0  0  0  0  0  0  0  0
   10.8681    1.0000    0.0000 C   0  0  0  0  0  0  0  0  0  0  0  0
   14.3322    1.0000    0.0000 C   0  0  0  0  0  0  0  0  0  0  0  0
   10.0021    2.5000    0.0000 C   0  0  0  0  0  0  0  0  0  0  0  0
   15.1982    2.5000    0.0000 C   0  0  0  0  0  0  0  0  0  0  0  0
  2 58  1  0
  3 59  1  0
 14  4  1  6
 15  5  1  6
 16  6  1  1
 17  7  1  6
  8 18  1  0
  9 19  1  0
 10 60  1  0
 11 61  1  0
 12 60  2  0
 13 61  2  0
 14 15  1  0
 14 16  1  0
 15 17  1  0
 16 18  1  0
 17 19  1  0
 20 21  1  0
 20 22  1  0
 21 23  1  0
 22 24  1  0
 23 25  1  0
 24 26  2  0
 25 27  2  0
 28 29  2  0
 28 30  1  0
 28 46  1  0
 29 31  1  0
 29 47  1  0
 30 35  2  0
 31 36  2  0
 32 34  2  0
 32 39  1  0
 32 48  1  0
 33 34  1  0
 33 40  2  0
 33 49  1  0
 35 36  1  0
 37 41  2  0
 37 43  1  0
 37 50  1  0
 38 42  2  0
 38 44  1  0
 38 51  1  0
 39 45  2  0
 40 45  1  0
 41 42  1  0
 43 44  2  0
 46 52  2  0
 47 53  2  0
 48 54  2  0
 49 55  2  0
 50 56  2  0
 51 57  2  0
 58 60  1  0
 58 62  2  0
 59 61  1  0
 59 63  2  0
M  CHG  3   1   2  10  -1  11  -1
M  END
