 
     RDKit          2D

 85 86  0  0  1  0  0  0  0  0999 V2000
   20.3420  -15.6751    0.0000 C   0  0  0  0  0  0  0  0  0  0  0  0
   20.3420  -17.0766    0.0000 C   0  0  0  0  0  0  0  0  0  0  0  0
   21.5567  -17.7773    0.0000 C   0  0  0  0  0  0  0  0  0  0  0  0
   22.7713  -17.0766    0.0000 C   0  0  0  0  0  0  0  0  0  0  0  0
   22.7713  -15.6751    0.0000 C   0  0  0  0  0  0  0  0  0  0  0  0
   21.5567  -14.9744    0.0000 O   0  0  0  0  0  0  0  0  0  0  0  0
   23.9859  -14.9744    0.0000 S   0  0  0  0  0  0  0  0  0  0  0  0
   23.9859  -13.5730    0.0000 C   0  0  0  0  0  0  0  0  0  0  0  0
   23.9859  -17.7773    0.0000 O   0  0  0  0  0  0  0  0  0  0  0  0
   21.5567  -19.1789    0.0000 O   0  0  0  0  0  0  0  0  0  0  0  0
   19.1275  -17.7773    0.0000 O   0  0  0  0  0  0  0  0  0  0  0  0
   19.1275  -14.9744    0.0000 C   0  0  0  0  0  0  0  0  0  0  0  0
   17.9129  -15.6751    0.0000 N   0  0  0  0  0  0  0  0  0  0  0  0
   19.1275  -13.5730    0.0000 C   0  0  0  0  0  0  0  0  0  0  0  0
   17.9129  -12.8722    0.0000 Cl  0  0  0  0  0  0  0  0  0  0  0  0
   20.3420  -12.8722    0.0000 C   0  0  0  0  0  0  0  0  0  0  0  0
   16.6983  -14.9744    0.0000 C   0  0  0  0  0  0  0  0  0  0  0  0
   15.4837  -15.6751    0.0000 C   0  0  0  0  0  0  0  0  0  0  0  0
   16.6983  -13.5730    0.0000 O   0  0  0  0  0  0  0  0  0  0  0  0
   14.3578  -14.8803    0.0000 N   0  0  0  0  0  0  0  0  0  0  0  0
   13.2387  -15.7030    0.0000 C   0  0  0  0  0  0  0  0  0  0  0  0
   13.6855  -17.0322    0.0000 C   0  0  0  0  0  0  0  0  0  0  0  0
   15.0690  -17.0253    0.0000 C   0  0  0  0  0  0  0  0  0  0  0  0
   14.3578  -13.4808    0.0000 C   0  0  0  0  0  0  0  0  0  0  0  0
   12.9918  -18.2479    0.0000 C   0  0  0  0  0  0  0  0  0  0  0  0
   11.6141  -18.2550    0.0000 C   0  0  0  0  0  0  0  0  0  0  0  0
   10.9162  -19.4785    0.0000 C   0  0  0  0  0  0  0  0  0  0  0  0
   25.2093  -17.0704    0.0000 P   0  0  0  0  0  0  0  0  0  0  0  0
   26.4215  -16.3706    0.0000 O   0  0  0  0  0  0  0  0  0  0  0  0
   24.5068  -15.8540    0.0000 O   0  0  0  0  0  0  0  0  0  0  0  0
   25.9066  -18.2777    0.0000 O   0  0  0  0  0  0  0  0  0  0  0  0
   22.7500  -16.2400    0.0000 C   0  0  0  0  0  0  0  0  0  0  0  0
   22.7500  -17.6400    0.0000 C   0  0  0  0  0  0  0  0  0  0  0  0
   23.9400  -18.3400    0.0000 C   0  0  0  0  0  0  0  0  0  0  0  0
   25.1300  -17.6400    0.0000 C   0  0  0  0  0  0  0  0  0  0  0  0
   25.1300  -16.2400    0.0000 C   0  0  0  0  0  0  0  0  0  0  0  0
   23.9400  -15.5400    0.0000 O   0  0  0  0  0  0  0  0  0  0  0  0
   26.3900  -15.5400    0.0000 S   0  0  0  0  0  0  0  0  0  0  0  0
   26.3900  -14.1400    0.0000 C   0  0  0  0  0  0  0  0  0  0  0  0
   26.3900  -18.3400    0.0000 O   0  0  0  0  0  0  0  0  0  0  0  0
   23.9400  -19.7400    0.0000 O   0  0  0  0  0  0  0  0  0  0  0  0
   21.4900  -18.3400    0.0000 O   0  0  0  0  0  0  0  0  0  0  0  0
   21.4900  -15.5400    0.0000 C   0  0  0  0  0  0  0  0  0  0  0  0
   20.3000  -16.2400    0.0000 N   0  0  0  0  0  0  0  0  0  0  0  0
   21.4900  -14.1400    0.0000 C   0  0  0  0  0  0  0  0  0  0  0  0
   20.3000  -13.4400    0.0000 Cl  0  0  0  0  0  0  0  0  0  0  0  0
   22.7500  -13.4400    0.0000 C   0  0  0  0  0  0  0  0  0  0  0  0
   19.1100  -15.5400    0.0000 C   0  0  0  0  0  0  0  0  0  0  0  0
   17.8500  -16.2400    0.0000 C   0  0  0  0  0  0  0  0  0  0  0  0
   19.1100  -14.1400    0.0000 O   0  0  0  0  0  0  0  0  0  0  0  0
   16.7300  -15.4700    0.0000 N   0  0  0  0  0  0  0  0  0  0  0  0
   15.6100  -16.2400    0.0000 C   0  0  0  0  0  0  0  0  0  0  0  0
   16.1000  -17.5700    0.0000 C   0  0  0  0  0  0  0  0  0  0  0  0
   17.4300  -17.5700    0.0000 C   0  0  0  0  0  0  0  0  0  0  0  0
   16.7300  -14.0700    0.0000 C   0  0  0  0  0  0  0  0  0  0  0  0
   15.4000  -18.8300    0.0000 C   0  0  0  0  0  0  0  0  0  0  0  0
   14.0000  -18.8300    0.0000 C   0  0  0  0  0  0  0  0  0  0  0  0
   13.3000  -20.0200    0.0000 C   0  0  0  0  0  0  0  0  0  0  0  0
   27.5800  -17.6400    0.0000 P   0  0  0  0  0  0  0  0  0  0  0  0
   28.7700  -16.9400    0.0000 O   0  0  0  0  0  0  0  0  0  0  0  0
   26.8800  -16.3800    0.0000 O   0  0  0  0  0  0  0  0  0  0  0  0
   28.2800  -18.8300    0.0000 O   0  0  0  0  0  0  0  0  0  0  0  0
   33.2500  -18.7600    0.0000 O   0  0  0  0  0  0  0  0  0  0  0  0
   14.4200  -19.8100    0.0000 C   0  0  0  0  0  0  0  0  0  0  0  0
   14.4200  -21.2100    0.0000 C   0  0  0  0  0  0  0  0  0  0  0  0
   15.6324  -21.9100    0.0000 C   0  0  0  0  0  0  0  0  0  0  0  0
   16.8449  -21.2100    0.0000 C   0  0  0  0  0  0  0  0  0  0  0  0
   16.8449  -19.8100    0.0000 C   0  0  0  0  0  0  0  0  0  0  0  0
   15.6324  -19.1100    0.0000 C   0  0  0  0  0  0  0  0  0  0  0  0
   16.4540  -17.9930    0.0000 C   0  0  0  0  0  0  0  0  0  0  0  0
   14.6889  -18.0557    0.0000 C   0  0  0  0  0  0  0  0  0  0  0  0
   18.0760  -21.9210    0.0000 C   0  0  0  0  0  0  0  0  0  0  0  0
   18.0760  -19.0990    0.0000 C   0  0  0  0  0  0  0  0  0  0  0  0
   19.2812  -19.7947    0.0000 C   0  0  0  0  0  0  0  0  0  0  0  0
   20.4635  -19.1119    0.0000 C   0  0  0  0  0  0  0  0  0  0  0  0
   21.6575  -19.8012    0.0000 C   0  0  0  0  0  0  0  0  0  0  0  0
   20.4635  -17.7102    0.0000 C   0  0  0  0  0  0  0  0  0  0  0  0
   22.8454  -19.1152    0.0000 C   0  0  0  0  0  0  0  0  0  0  0  0
   24.0365  -19.8029    0.0000 C   0  0  0  0  0  0  0  0  0  0  0  0
   25.2259  -19.1161    0.0000 C   0  0  0  0  0  0  0  0  0  0  0  0
   26.4162  -19.8034    0.0000 C   0  0  0  0  0  0  0  0  0  0  0  0
   27.6061  -19.1163    0.0000 C   0  0  0  0  0  0  0  0  0  0  0  0
   28.7962  -19.8035    0.0000 O   0  0  0  0  0  0  0  0  0  0  0  0
   25.2260  -17.7102    0.0000 C   0  0  0  0  0  0  0  0  0  0  0  0
   27.6061  -17.7102    0.0000 O   0  0  0  0  0  0  0  0  0  0  0  0
  1  2  1  0
  2  3  1  0
  3  4  1  0
  4  5  1  0
  5  6  1  0
  1  6  1  1
  5  7  1  6
  7  8  1  0
  4  9  1  6
  3 10  1  1
  2 11  1  1
  1 12  1  0
 12 13  1  6
 12 14  1  0
 14 15  1  0
 14 16  1  1
 13 17  1  0
 18 17  1  6
 17 19  2  0
 18 20  1  0
 20 21  1  0
 21 22  1  0
 22 23  1  0
 18 23  1  0
 20 24  1  0
 22 25  1  1
 25 26  1  0
 26 27  1  0
  9 28  1  0
 28 29  1  0
 28 30  2  0
 28 31  1  0
 32 33  1  0
 33 34  1  0
 34 35  1  0
 35 36  1  0
 36 37  1  0
 32 37  1  1
 36 38  1  6
 38 39  1  0
 35 40  1  6
 34 41  1  1
 33 42  1  1
 32 43  1  0
 43 44  1  6
 43 45  1  0
 45 46  1  0
 45 47  1  1
 44 48  1  0
 49 48  1  6
 48 50  2  0
 49 51  1  0
 51 52  1  0
 52 53  1  0
 53 54  1  0
 49 54  1  0
 51 55  1  0
 53 56  1  1
 56 57  1  0
 57 58  1  0
 40 59  1  0
 59 60  1  0
 59 61  2  0
 59 62  1  0
 64 65  1  0
 65 66  1  0
 66 67  1  0
 67 68  2  0
 68 69  1  0
 64 69  1  0
 69 70  1  0
 69 71  1  0
 67 72  1  0
 68 73  1  0
 73 74  2  0
 74 75  1  0
 75 76  2  0
 75 77  1  0
 76 78  1  0
 78 79  2  0
 79 80  1  0
 80 81  2  0
 81 82  1  0
 82 83  1  0
 80 84  1  0
 82 85  2  0
M  END
