122197536
     RDKit          2D

 89 89  0  0  1  0  0  0  0  0999 V2000
   18.4545  -11.5950    0.0000 S   0  0  0  0  0  0  0  0  0  0  0  0
    6.3301    9.4050    0.0000 S   0  0  0  0  0  0  0  0  0  0  0  0
   18.9545  -10.7290    0.0000 O   0  0  0  0  0  0  0  0  0  0  0  0
   17.9545  -12.4610    0.0000 O   0  0  0  0  0  0  0  0  0  0  0  0
   14.9904  -12.5950    0.0000 O   0  0  0  0  0  0  0  0  0  0  0  0
   11.5263    3.4050    0.0000 O   0  0  0  0  0  0  0  0  0  0  0  0
   11.5263  -11.5950    0.0000 O   0  0  0  0  0  0  0  0  0  0  0  0
    8.0622    0.4050    0.0000 O   0  0  0  0  0  0  0  0  0  0  0  0
    8.0622    2.4050    0.0000 O   0  0  0  0  0  0  0  0  0  0  0  0
    5.4641   -8.0950    0.0000 O   0  0  0  0  0  0  0  0  0  0  0  0
    7.1962   -2.0950    0.0000 O   0  0  0  0  0  0  0  0  0  0  0  0
    8.9282  -11.0950    0.0000 O   0  0  0  0  0  0  0  0  0  0  0  0
    8.0622    8.4050    0.0000 O   0  0  0  0  0  0  0  0  0  0  0  0
    2.8660   -5.5950    0.0000 O   0  0  0  0  0  0  0  0  0  0  0  0
    3.7320  -11.0950    0.0000 O   0  0  0  0  0  0  0  0  0  0  0  0
    2.0000   -7.0950    0.0000 O   0  0  0  0  0  0  0  0  0  0  0  0
    6.3301   -5.5950    0.0000 O   0  0  0  0  0  0  0  0  0  0  0  0
    4.5981  -12.5950    0.0000 O   0  0  0  0  0  0  0  0  0  0  0  0
    7.1962  -10.0950    0.0000 O   0  0  0  0  0  0  0  0  0  0  0  0
    4.5981   12.4050    0.0000 O   0  0  0  0  0  0  0  0  0  0  0  0
    3.7320   10.9050    0.0000 O   0  0  0  0  0  0  0  0  0  0  0  0
   19.3205  -12.0950    0.0000 N   0  0  0  0  0  0  0  0  0  0  0  0
   34.9565  -12.0017    0.0000 N   0  0  0  0  0  0  0  0  0  0  0  0
   34.1475  -10.6005    0.0000 N   0  0  0  0  0  0  0  0  0  0  0  0
   35.6256  -11.2586    0.0000 N   0  0  0  0  0  0  0  0  0  0  0  0
   35.1256  -10.3926    0.0000 N   0  0  0  0  0  0  0  0  0  0  0  0
    9.7942    2.4050    0.0000 N   0  0  0  0  0  0  0  0  0  0  0  0
   14.1244  -11.0950    0.0000 N   0  0  0  0  0  0  0  0  0  0  0  0
    7.1962    6.9050    0.0000 N   0  0  0  0  0  0  0  0  0  0  0  0
    3.7320   -8.0950    0.0000 N   0  0  0  0  0  0  0  0  0  0  0  0
   10.6603    4.9050    0.0000 N   0  0  0  0  0  0  0  0  0  0  0  0
    6.3301  -11.5950    0.0000 N   0  0  0  0  0  0  0  0  0  0  0  0
    5.4641   -4.0950    0.0000 N   0  0  0  0  0  0  0  0  0  0  0  0
    6.3301   11.4050    0.0000 N   0  0  0  0  0  0  0  0  0  0  0  0
   27.1147  -11.5950    0.0000 C   0  0  0  0  0  0  0  0  0  0  0  0
   26.2487  -12.0950    0.0000 C   0  0  0  0  0  0  0  0  0  0  0  0
   27.9808  -12.0950    0.0000 C   0  0  0  0  0  0  0  0  0  0  0  0
   25.3827  -11.5950    0.0000 C   0  0  0  0  0  0  0  0  0  0  0  0
   28.8468  -11.5950    0.0000 C   0  0  0  0  0  0  0  0  0  0  0  0
   24.5167  -12.0950    0.0000 C   0  0  0  0  0  0  0  0  0  0  0  0
   29.7128  -12.0950    0.0000 C   0  0  0  0  0  0  0  0  0  0  0  0
   23.6506  -11.5950    0.0000 C   0  0  0  0  0  0  0  0  0  0  0  0
   30.5788  -11.5950    0.0000 C   0  0  0  0  0  0  0  0  0  0  0  0
   22.7846  -12.0950    0.0000 C   0  0  0  0  0  0  0  0  0  0  0  0
   31.4449  -12.0950    0.0000 C   0  0  0  0  0  0  0  0  0  0  0  0
   21.9186  -11.5950    0.0000 C   0  0  0  0  0  0  0  0  0  0  0  0
   32.3109  -11.5950    0.0000 C   0  0  0  0  0  0  0  0  0  0  0  0
   21.0526  -12.0950    0.0000 C   0  0  0  0  0  0  0  0  0  0  0  0
   33.1769  -12.0950    0.0000 C   0  0  0  0  0  0  0  0  0  0  0  0
   20.1865  -11.5950    0.0000 C   0  0  0  0  0  0  0  0  0  0  0  0
   34.0429  -11.5950    0.0000 C   0  0  0  0  0  0  0  0  0  0  0  0
   17.5885  -11.0950    0.0000 C   0  0  0  0  0  0  0  0  0  0  0  0
   20.1865  -10.5950    0.0000 C   0  0  0  0  0  0  0  0  0  0  0  0
   16.7224  -11.5950    0.0000 C   0  0  0  0  0  0  0  0  0  0  0  0
   15.8564  -11.0950    0.0000 C   0  0  0  0  0  0  0  0  0  0  0  0
    8.9282    3.9050    0.0000 C   0  0  0  0  0  0  0  0  0  0  0  0
    8.9282    4.9050    0.0000 C   0  0  0  0  0  0  0  0  0  0  0  0
    9.7942    3.4050    0.0000 C   0  0  0  0  0  0  0  0  0  0  0  0
    8.0622    5.4050    0.0000 C   0  0  0  0  0  0  0  0  0  0  0  0
   14.9904  -11.5950    0.0000 C   0  0  0  0  0  0  0  0  0  0  0  0
    8.0622    6.4050    0.0000 C   0  0  0  0  0  0  0  0  0  0  0  0
   10.6603    3.9050    0.0000 C   0  0  0  0  0  0  0  0  0  0  0  0
   13.2583  -11.5950    0.0000 C   0  0  0  0  0  0  0  0  0  0  0  0
    3.7320   -7.0950    0.0000 C   0  0  0  0  0  0  0  0  0  0  0  0
    4.5981   -6.5950    0.0000 C   0  0  0  0  0  0  0  0  0  0  0  0
    5.4641  -10.0950    0.0000 C   0  0  0  0  0  0  0  0  0  0  0  0
    8.9282    1.9050    0.0000 C   0  0  0  0  0  0  0  0  0  0  0  0
    4.5981   -9.5950    0.0000 C   0  0  0  0  0  0  0  0  0  0  0  0
    5.4641  -11.0950    0.0000 C   0  0  0  0  0  0  0  0  0  0  0  0
    4.5981   -5.5950    0.0000 C   0  0  0  0  0  0  0  0  0  0  0  0
   12.3923  -11.0950    0.0000 C   0  0  0  0  0  0  0  0  0  0  0  0
    4.5981   -8.5950    0.0000 C   0  0  0  0  0  0  0  0  0  0  0  0
    8.9282    0.9050    0.0000 C   0  0  0  0  0  0  0  0  0  0  0  0
    7.1962    7.9050    0.0000 C   0  0  0  0  0  0  0  0  0  0  0  0
    2.8660   -6.5950    0.0000 C   0  0  0  0  0  0  0  0  0  0  0  0
    5.4641   -5.0950    0.0000 C   0  0  0  0  0  0  0  0  0  0  0  0
    6.3301    8.4050    0.0000 C   0  0  0  0  0  0  0  0  0  0  0  0
    4.5981  -11.5950    0.0000 C   0  0  0  0  0  0  0  0  0  0  0  0
    6.3301   -3.5950    0.0000 C   0  0  0  0  0  0  0  0  0  0  0  0
    8.0622   -0.5950    0.0000 C   0  0  0  0  0  0  0  0  0  0  0  0
    7.1962  -11.0950    0.0000 C   0  0  0  0  0  0  0  0  0  0  0  0
   10.6603  -11.0950    0.0000 C   0  0  0  0  0  0  0  0  0  0  0  0
    6.3301   -2.5950    0.0000 C   0  0  0  0  0  0  0  0  0  0  0  0
    7.1962   -1.0950    0.0000 C   0  0  0  0  0  0  0  0  0  0  0  0
    8.0622  -11.5950    0.0000 C   0  0  0  0  0  0  0  0  0  0  0  0
    9.7942  -11.5950    0.0000 C   0  0  0  0  0  0  0  0  0  0  0  0
    5.4641    9.9050    0.0000 C   0  0  0  0  0  0  0  0  0  0  0  0
    5.4641   10.9050    0.0000 C   0  0  0  0  0  0  0  0  0  0  0  0
    4.5981   11.4050    0.0000 C   0  0  0  0  0  0  0  0  0  0  0  0
  1  3  2  0
  1  4  2  0
  1 22  1  0
  1 52  1  0
  2 77  1  0
  2 87  1  0
  5 60  2  0
  6 62  2  0
  7 71  1  0
  7 82  1  0
  8 73  1  0
  8 80  1  0
  9 67  2  0
 10 72  2  0
 11 83  1  0
 11 84  1  0
 12 85  1  0
 12 86  1  0
 13 74  2  0
 14 75  1  0
 15 78  1  0
 16 75  2  0
 17 76  2  0
 18 78  2  0
 19 81  2  0
 20 89  1  0
 21 89  2  0
 22 50  1  0
 23 25  1  0
 23 51  2  0
 24 26  2  0
 24 51  1  0
 25 26  1  0
 58 27  1  0
 27 67  1  0
 28 60  1  0
 28 63  1  0
 29 61  1  0
 29 74  1  0
 64 30  1  0
 30 72  1  0
 31 62  1  0
 69 32  1  0
 32 81  1  0
 33 76  1  0
 33 79  1  0
 88 34  1  1
 35 36  1  0
 35 37  1  0
 36 38  1  0
 37 39  1  0
 38 40  1  0
 39 41  1  0
 40 42  1  0
 41 43  1  0
 42 44  1  0
 43 45  1  0
 44 46  1  0
 45 47  1  0
 46 48  1  0
 47 49  1  0
 48 50  1  0
 49 51  1  0
 50 53  2  0
 52 54  1  0
 54 55  1  0
 55 60  1  0
 56 57  1  0
 58 56  1  1
 57 59  1  0
 58 62  1  0
 59 61  1  0
 63 71  1  0
 64 65  1  6
 64 75  1  0
 65 70  1  0
 66 68  1  0
 69 66  1  6
 67 73  1  0
 68 72  1  0
 69 78  1  0
 70 76  1  0
 74 77  1  0
 79 83  1  0
 80 84  1  0
 81 85  1  0
 82 86  1  0
 87 88  1  0
 88 89  1  0
M  END
