 
     RDKit          2D

 37 40  0  0  1  0  0  0  0  0999 V2000
   24.4381  -17.6672    0.0000 C   0  0  0  0  0  0  0  0  0  0  0  0
   24.4321  -16.3168    0.0000 C   0  0  0  0  0  0  0  0  0  0  0  0
   25.6030  -18.3338    0.0000 C   0  0  0  0  0  0  0  0  0  0  0  0
   23.2847  -18.3454    0.0000 C   0  0  0  0  0  0  0  0  0  0  0  0
   23.2672  -15.6445    0.0000 C   0  0  0  0  0  0  0  0  0  0  0  0
   25.5972  -15.6445    0.0000 C   0  0  0  0  0  0  0  0  0  0  0  0
   26.7623  -17.6499    0.0000 C   0  0  0  0  0  0  0  0  0  0  0  0
   25.6087  -19.6668    0.0000 C   0  0  0  0  0  0  0  0  0  0  0  0
   26.7623  -19.2729    0.0000 O   0  0  0  0  0  0  0  0  0  0  0  0
   22.5833  -17.0126    0.0000 O   0  0  0  0  0  0  0  0  0  0  0  0
   23.2905  -19.6784    0.0000 C   0  0  0  0  0  0  0  0  0  0  0  0
   23.2672  -14.2999    0.0000 C   0  0  0  0  0  0  0  0  0  0  0  0
   26.7623  -16.3109    0.0000 C   0  0  0  0  0  0  0  0  0  0  0  0
   25.5972  -14.2999    0.0000 C   0  0  0  0  0  0  0  0  0  0  0  0
   27.9213  -18.3221    0.0000 N   0  0  0  0  0  0  0  0  0  0  0  0
   24.4554  -20.3450    0.0000 C   0  0  0  0  0  0  0  0  0  0  0  0
   22.1139  -20.3391    0.0000 O   0  0  0  0  0  0  0  0  0  0  0  0
   24.4321  -13.6277    0.0000 C   0  0  0  0  0  0  0  0  0  0  0  0
   22.0966  -13.6277    0.0000 O   0  0  0  0  0  0  0  0  0  0  0  0
   29.2659  -18.3221    0.0000 C   0  0  0  0  0  0  0  0  0  0  0  0
   27.9213  -16.9998    0.0000 C   0  0  0  0  0  0  0  0  0  0  0  0
   25.6435  -17.0412    0.0000 C   0  0  0  0  0  0  0  0  0  0  0  0
   20.8657  -14.3423    0.0000 C   0  0  0  0  0  0  0  0  0  0  0  0
   29.6100  -14.9100    0.0000 Cl  0  0  0  0  0  0  0  0  0  0  0  0
   20.2981  -15.8105    0.0000 C   0  0  0  0  0  0  0  0  0  0  0  0
   21.5226  -16.5029    0.0000 C   0  0  0  0  0  0  0  0  0  0  0  0
   19.0928  -16.5029    0.0000 C   0  0  0  0  0  0  0  0  0  0  0  0
   20.2981  -14.6227    0.0000 C   0  0  0  0  0  0  0  0  0  0  0  0
   21.5226  -17.9133    0.0000 C   0  0  0  0  0  0  0  0  0  0  0  0
   22.7278  -15.8040    0.0000 O   0  0  0  0  0  0  0  0  0  0  0  0
   19.0928  -17.9133    0.0000 C   0  0  0  0  0  0  0  0  0  0  0  0
   21.5033  -13.9240    0.0000 O   0  0  0  0  0  0  0  0  0  0  0  0
   19.0863  -13.9304    0.0000 O   0  0  0  0  0  0  0  0  0  0  0  0
   20.2981  -18.6250    0.0000 C   0  0  0  0  0  0  0  0  0  0  0  0
   23.9396  -16.4964    0.0000 C   0  0  0  0  0  0  0  0  0  0  0  0
   25.1450  -15.7977    0.0000 C   0  0  0  0  0  0  0  0  0  0  0  0
   23.9396  -17.8942    0.0000 O   0  0  0  0  0  0  0  0  0  0  0  0
  1  2  1  0
  1  3  1  0
  1  4  1  0
  2  5  2  0
  2  6  1  0
  3  7  1  0
  3  8  1  0
  3  9  1  1
  4 10  1  6
  4 11  1  0
  5 12  1  0
  6 13  1  0
  6 14  2  0
  7 15  1  0
  8 16  1  0
 11 17  2  0
 12 18  2  0
 12 19  1  0
 15 20  1  0
  5 10  1  0
  7 13  1  1
 11 16  1  0
 14 18  1  0
 15 21  1  0
  1 22  1  1
 22 21  1  0
 19 23  1  0
 25 26  2  0
 25 27  1  0
 25 28  1  0
 26 29  1  0
 26 30  1  0
 27 31  2  0
 28 32  1  0
 28 33  2  0
 29 34  2  0
 30 35  1  0
 35 36  1  0
 35 37  2  0
 31 34  1  0
M  END
