 
     RDKit          2D

 34 38  0  0  0  0  0  0  0  0999 V2000
   15.4812  -25.6868    0.0000 C   0  0  0  0  0  0  0  0  0  0  0  0
   15.4812  -27.0963    0.0000 C   0  0  0  0  0  0  0  0  0  0  0  0
   16.6793  -27.8011    0.0000 C   0  0  0  0  0  0  0  0  0  0  0  0
   17.9479  -27.0963    0.0000 C   0  0  0  0  0  0  0  0  0  0  0  0
   17.9479  -25.6868    0.0000 C   0  0  0  0  0  0  0  0  0  0  0  0
   16.6793  -24.9821    0.0000 C   0  0  0  0  0  0  0  0  0  0  0  0
   19.1460  -27.8011    0.0000 C   0  0  0  0  0  0  0  0  0  0  0  0
   20.3440  -27.0963    0.0000 C   0  0  0  0  0  0  0  0  0  0  0  0
   20.3440  -25.6868    0.0000 C   0  0  0  0  0  0  0  0  0  0  0  0
   19.1460  -24.9821    0.0000 C   0  0  0  0  0  0  0  0  0  0  0  0
   16.6793  -23.5726    0.0000 N   0  0  0  0  0  0  0  0  0  0  0  0
   17.8069  -22.7269    0.0000 C   0  0  0  0  0  0  0  0  0  0  0  0
   17.3841  -21.4583    0.0000 N   0  0  0  0  0  0  0  0  0  0  0  0
   15.9746  -21.4583    0.0000 N   0  0  0  0  0  0  0  0  0  0  0  0
   15.5517  -22.7269    0.0000 C   0  0  0  0  0  0  0  0  0  0  0  0
   19.0050  -23.4316    0.0000 S   0  0  0  0  0  0  0  0  0  0  0  0
   20.2031  -22.7269    0.0000 C   0  0  0  0  0  0  0  0  0  0  0  0
   21.4012  -23.4316    0.0000 C   0  0  0  0  0  0  0  0  0  0  0  0
   22.5992  -22.7269    0.0000 O   0  0  0  0  0  0  0  0  0  0  0  0
   21.4012  -24.8411    0.0000 O   0  0  0  0  0  0  0  0  0  0  0  0
   14.2064  -23.1471    0.0000 Br  0  0  0  0  0  0  0  0  0  0  0  0
   16.6620  -29.2105    0.0000 C   0  0  0  0  0  0  0  0  0  0  0  0
   15.9573  -30.4311    0.0000 C   0  0  0  0  0  0  0  0  0  0  0  0
   17.3668  -30.4311    0.0000 C   0  0  0  0  0  0  0  0  0  0  0  0
   18.5315  -16.1687    0.0000 C   0  0  0  0  0  0  0  0  0  0  0  0
   18.5315  -17.5678    0.0000 C   0  0  0  0  0  0  0  0  0  0  0  0
   19.7490  -15.4662    0.0000 C   0  0  0  0  0  0  0  0  0  0  0  0
   17.1967  -15.7414    0.0000 C   0  0  0  0  0  0  0  0  0  0  0  0
   19.7490  -18.2703    0.0000 N   0  0  0  0  0  0  0  0  0  0  0  0
   17.2026  -18.0068    0.0000 N   0  0  0  0  0  0  0  0  0  0  0  0
   20.9548  -16.1687    0.0000 N   0  0  0  0  0  0  0  0  0  0  0  0
   19.7490  -14.0673    0.0000 O   0  0  0  0  0  0  0  0  0  0  0  0
   16.3773  -16.8711    0.0000 N   0  0  0  0  0  0  0  0  0  0  0  0
   20.9548  -17.5678    0.0000 C   0  0  0  0  0  0  0  0  0  0  0  0
  1  2  2  0
  2  3  1  0
  3  4  2  0
  4  5  1  0
  5  6  2  0
  1  6  1  0
  4  7  1  0
  7  8  2  0
  8  9  1  0
  9 10  2  0
  5 10  1  0
  6 11  1  0
 11 12  1  0
 12 13  2  0
 13 14  1  0
 14 15  2  0
 11 15  1  0
 12 16  1  0
 16 17  1  0
 17 18  1  0
 18 19  1  0
 18 20  2  0
 15 21  1  0
  3 22  1  0
 22 23  1  0
 22 24  1  0
 23 24  1  0
 25 26  1  0
 25 27  2  0
 25 28  1  0
 26 29  2  0
 26 30  1  0
 27 31  1  0
 27 32  1  0
 28 33  2  0
 29 34  1  0
 30 33  1  0
 31 34  2  0
M  END
