 
 
 
 34 34  0  0  0  0  0  0  0  0999 V2000
   16.3800  -19.1800    0.0000 C   0  0  0  0  0  0  0  0  0  0  0  0
   16.8000  -20.5100    0.0000 C   0  0  0  0  0  0  0  0  0  0  0  0
   18.2000  -20.5100    0.0000 C   0  0  0  0  0  0  0  0  0  0  0  0
   18.6200  -19.1800    0.0000 C   0  0  0  0  0  0  0  0  0  0  0  0
   17.5000  -18.3400    0.0000 O   0  0  0  0  0  0  0  0  0  0  0  0
   15.1900  -18.4800    0.0000 O   0  0  0  0  0  0  0  0  0  0  0  0
   14.0000  -19.1800    0.0000 C   0  0  0  0  0  0  0  0  0  0  0  0
   12.8100  -18.4800    0.0000 C   0  0  0  0  0  0  0  0  0  0  0  0
   11.6200  -19.1800    0.0000 C   0  0  0  0  0  0  0  0  0  0  0  0
   10.4300  -18.4800    0.0000 C   0  0  0  0  0  0  0  0  0  0  0  0
    9.2400  -19.1800    0.0000 C   0  0  0  0  0  0  0  0  0  0  0  0
    8.0500  -18.4800    0.0000 C   0  0  0  0  0  0  0  0  0  0  0  0
    8.0500  -17.0800    0.0000 C   0  0  0  0  0  0  0  0  0  0  0  0
    9.2400  -16.3800    0.0000 C   0  0  0  0  0  0  0  0  0  0  0  0
   10.4300  -17.0800    0.0000 C   0  0  0  0  0  0  0  0  0  0  0  0
   11.6200  -16.3800    0.0000 C   0  0  0  0  0  0  0  0  0  0  0  0
   12.8100  -17.0800    0.0000 C   0  0  0  0  0  0  0  0  0  0  0  0
   14.0000  -16.3800    0.0000 C   0  0  0  0  0  0  0  0  0  0  0  0
   15.1900  -17.0800    0.0000 C   0  0  0  0  0  0  0  0  0  0  0  0
   16.3800  -16.3800    0.0000 C   0  0  0  0  0  0  0  0  0  0  0  0
   19.8100  -18.4800    0.0000 C   0  0  0  0  0  0  0  0  0  0  0  0
   21.0000  -19.1800    0.0000 O   0  0  0  0  0  0  0  0  0  0  0  0
   19.8100  -17.0800    0.0000 O   0  0  0  0  0  0  0  0  0  0  0  0
   22.1900  -18.4800    0.0000 C   0  0  0  0  0  0  0  0  0  0  0  0
   23.3800  -19.1800    0.0000 C   0  0  0  0  0  0  0  0  0  0  0  0
   24.5700  -18.4800    0.0000 N   0  0  0  0  0  0  0  0  0  0  0  0
   23.3800  -20.5800    0.0000 O   0  0  0  0  0  0  0  0  0  0  0  0
   25.7881  -19.1701    0.0000 C   0  0  0  0  0  0  0  0  0  0  0  0
   24.5586  -17.0800    0.0000 C   0  0  0  0  0  0  0  0  0  0  0  0
   26.9695  -18.4750    0.0000 C   0  0  0  0  0  0  0  0  0  0  0  0
   28.1749  -19.1580    0.0000 O   0  0  0  0  0  0  0  0  0  0  0  0
   26.9581  -17.0800    0.0000 O   0  0  0  0  0  0  0  0  0  0  0  0
   29.3461  -18.4691    0.0000 C   0  0  0  0  0  0  0  0  0  0  0  0
   30.5565  -19.1551    0.0000 C   0  0  0  0  0  0  0  0  0  0  0  0
  1  2  2  0     0  0
  2  3  1  0     0  0
  3  4  2  0     0  0
  4  5  1  0     0  0
  1  5  1  0     0  0
  6  1  1  0     0  0
  6  7  1  0     0  0
  7  8  1  0     0  0
  8  9  1  0     0  0
  9 10  1  0     0  0
 10 11  1  0     0  0
 11 12  1  0     0  0
 12 13  1  0     0  0
 13 14  1  0     0  0
 14 15  1  0     0  0
 15 16  1  0     0  0
 16 17  1  0     0  0
 17 18  1  0     0  0
 18 19  1  0     0  0
 19 20  1  0     0  0
 21 22  1  0     0  0
 21  4  1  0     0  0
 21 23  2  0     0  0
 22 24  1  0     0  0
 24 25  1  0     0  0
 25 26  1  0     0  0
 25 27  2  0     0  0
 26 28  1  0     0  0
 26 29  1  0     0  0
 28 30  1  0     0  0
 30 31  1  0     0  0
 30 32  2  0     0  0
 31 33  1  0     0  0
 33 34  1  0     0  0
M  END
