 
     RDKit          2D

 70 67  0  0  0  0  0  0  0  0999 V2000
   30.1700  -17.8500    0.0000 Cl  0  0  0  0  0  0  0  0  0  0  0  0
   18.9700  -17.9900    0.0000 C   0  0  0  0  0  0  0  0  0  0  0  0
   20.4400  -17.9900    0.0000 C   0  0  0  0  0  0  0  0  0  0  0  0
   20.8600  -16.6600    0.0000 C   0  0  0  0  0  0  0  0  0  0  0  0
   19.7400  -15.8200    0.0000 S   0  0  0  0  0  0  0  0  0  0  0  0
   18.5500  -16.6600    0.0000 C   0  0  0  0  0  0  0  0  0  0  0  0
   21.2800  -19.1100    0.0000 N   0  0  0  0  0  0  0  0  0  0  0  0
   22.1900  -16.2400    0.0000 C   0  0  0  0  0  0  0  0  0  0  0  0
   23.1000  -17.0100    0.0000 O   0  0  0  0  0  0  0  0  0  0  0  0
   22.4700  -14.8400    0.0000 O   0  0  0  0  0  0  0  0  0  0  0  0
   23.8000  -14.4200    0.0000 C   0  0  0  0  0  0  0  0  0  0  0  0
   18.1300  -19.1100    0.0000 C   0  0  0  0  0  0  0  0  0  0  0  0
   22.6800  -19.1100    0.0000 C   0  0  0  0  0  0  0  0  0  0  0  0
   23.3800  -20.3224    0.0000 C   0  0  0  0  0  0  0  0  0  0  0  0
   24.7798  -20.3224    0.0000 N   0  0  0  0  0  0  0  0  0  0  0  0
   23.3800  -17.8976    0.0000 O   0  0  0  0  0  0  0  0  0  0  0  0
   22.6896  -21.5179    0.0000 C   0  0  0  0  0  0  0  0  0  0  0  0
   25.4703  -21.5180    0.0000 C   0  0  0  0  0  0  0  0  0  0  0  0
   26.8797  -21.5180    0.0000 C   0  0  0  0  0  0  0  0  0  0  0  0
   27.5677  -22.7095    0.0000 C   0  0  0  0  0  0  0  0  0  0  0  0
   16.7785  -17.0333    0.0000 C   0  0  0  0  0  0  0  0  0  0  0  0
   16.7785  -18.4291    0.0000 C   0  0  0  0  0  0  0  0  0  0  0  0
   15.5689  -16.3355    0.0000 C   0  0  0  0  0  0  0  0  0  0  0  0
   17.9882  -16.3355    0.0000 C   0  0  0  0  0  0  0  0  0  0  0  0
   15.5689  -19.1735    0.0000 C   0  0  0  0  0  0  0  0  0  0  0  0
   14.3592  -17.0333    0.0000 C   0  0  0  0  0  0  0  0  0  0  0  0
   19.1978  -17.0333    0.0000 C   0  0  0  0  0  0  0  0  0  0  0  0
   17.9882  -14.9397    0.0000 O   0  0  0  0  0  0  0  0  0  0  0  0
   14.3592  -18.4291    0.0000 C   0  0  0  0  0  0  0  0  0  0  0  0
   20.4074  -16.3355    0.0000 N   0  0  0  0  0  0  0  0  0  0  0  0
   13.1496  -19.1269    0.0000 O   0  0  0  0  0  0  0  0  0  0  0  0
   13.1496  -16.3355    0.0000 O   0  0  0  0  0  0  0  0  0  0  0  0
   21.6171  -17.0333    0.0000 C   0  0  0  0  0  0  0  0  0  0  0  0
   25.0833  -17.0100    0.0000 O   0  0  0  0  0  0  0  0  0  0  0  0
   26.2958  -16.3100    0.0000 C   0  0  0  0  0  0  0  0  0  0  0  0
   27.5082  -17.0100    0.0000 C   0  0  0  0  0  0  0  0  0  0  0  0
   28.7207  -16.3100    0.0000 C   0  0  0  0  0  0  0  0  0  0  0  0
   29.9332  -17.0100    0.0000 C   0  0  0  0  0  0  0  0  0  0  0  0
   31.1456  -16.3100    0.0000 O   0  0  0  0  0  0  0  0  0  0  0  0
   29.9332  -18.4100    0.0000 O   0  0  0  0  0  0  0  0  0  0  0  0
   26.2958  -14.9100    0.0000 O   0  0  0  0  0  0  0  0  0  0  0  0
   28.7207  -14.9100    0.0000 O   0  0  0  0  0  0  0  0  0  0  0  0
   27.5082  -18.4100    0.0000 O   0  0  0  0  0  0  0  0  0  0  0  0
   21.2028  -17.0133    0.0000 C   0  0  0  0  0  0  0  0  0  0  0  0
   21.2028  -18.4284    0.0000 C   0  0  0  0  0  0  0  0  0  0  0  0
   19.9857  -16.3144    0.0000 C   0  0  0  0  0  0  0  0  0  0  0  0
   22.4083  -16.3144    0.0000 C   0  0  0  0  0  0  0  0  0  0  0  0
   19.9857  -19.1389    0.0000 C   0  0  0  0  0  0  0  0  0  0  0  0
   18.7742  -17.0133    0.0000 C   0  0  0  0  0  0  0  0  0  0  0  0
   23.6196  -17.0075    0.0000 C   0  0  0  0  0  0  0  0  0  0  0  0
   22.4083  -14.9168    0.0000 O   0  0  0  0  0  0  0  0  0  0  0  0
   18.7742  -18.4284    0.0000 C   0  0  0  0  0  0  0  0  0  0  0  0
   24.8191  -16.3087    0.0000 N   0  0  0  0  0  0  0  0  0  0  0  0
   17.5630  -19.1156    0.0000 O   0  0  0  0  0  0  0  0  0  0  0  0
   17.5677  -16.3165    0.0000 O   0  0  0  0  0  0  0  0  0  0  0  0
   26.0284  -17.0006    0.0000 C   0  0  0  0  0  0  0  0  0  0  0  0
   16.4509  -13.8031    0.0000 Cl  0  0  0  0  0  0  0  0  0  0  0  0
   10.1428  -11.1333    0.0000 C   0  0  0  0  0  0  0  0  0  0  0  0
   10.1428  -12.5484    0.0000 C   0  0  0  0  0  0  0  0  0  0  0  0
    8.9257  -10.4344    0.0000 C   0  0  0  0  0  0  0  0  0  0  0  0
   11.3483  -10.4344    0.0000 C   0  0  0  0  0  0  0  0  0  0  0  0
    8.9257  -13.2589    0.0000 C   0  0  0  0  0  0  0  0  0  0  0  0
    7.7142  -11.1333    0.0000 C   0  0  0  0  0  0  0  0  0  0  0  0
   12.5596  -11.1275    0.0000 C   0  0  0  0  0  0  0  0  0  0  0  0
   11.3483   -9.0368    0.0000 O   0  0  0  0  0  0  0  0  0  0  0  0
    7.7142  -12.5484    0.0000 C   0  0  0  0  0  0  0  0  0  0  0  0
   13.7591  -10.4287    0.0000 N   0  0  0  0  0  0  0  0  0  0  0  0
    6.5030  -13.2356    0.0000 O   0  0  0  0  0  0  0  0  0  0  0  0
    6.5077  -10.4365    0.0000 O   0  0  0  0  0  0  0  0  0  0  0  0
   14.9684  -11.1206    0.0000 C   0  0  0  0  0  0  0  0  0  0  0  0
  2  3  1  0
  3  4  2  0
  4  5  1  0
  5  6  1  0
  2  6  2  0
  3  7  1  0
  4  8  1  0
  8  9  2  0
  8 10  1  0
 10 11  1  0
  2 12  1  0
  7 13  1  0
 13 14  1  0
 14 15  1  0
 13 16  2  0
 14 17  1  0
 15 18  1  0
 18 19  1  0
 19 20  1  0
 21 23  2  0
 21 24  1  0
 22 25  2  0
 23 26  1  0
 24 27  1  0
 24 28  1  1
 25 29  1  0
 27 30  1  0
 29 31  1  0
 26 29  2  0
 26 32  1  0
 21 22  1  0
 30 33  1  0
 34 35  1  0
 35 36  1  0
 36 37  1  0
 37 38  1  0
 38 39  1  0
 38 40  2  0
 35 41  2  0
 37 42  1  1
 36 43  1  1
 44 46  2  0
 44 47  1  0
 45 48  2  0
 46 49  1  0
 47 50  1  0
 47 51  1  1
 48 52  1  0
 50 53  1  0
 52 54  1  0
 49 52  2  0
 49 55  1  0
 44 45  1  0
 53 56  1  0
 58 60  2  0
 58 61  1  0
 59 62  2  0
 60 63  1  0
 61 64  1  0
 61 65  1  1
 62 66  1  0
 64 67  1  0
 66 68  1  0
 63 66  2  0
 63 69  1  0
 58 59  1  0
 67 70  1  0
M  END
