 
     RDKit          2D

 60 63  0  0  1  0  0  0  0  0999 V2000
   21.5600  -21.8400    0.0000 C   0  0  0  0  0  0  0  0  0  0  0  0
   21.5600  -20.4400    0.0000 N   0  0  0  0  0  0  0  0  0  0  0  0
   22.7500  -19.7400    0.0000 C   0  0  0  0  0  0  0  0  0  0  0  0
   24.0100  -20.4400    0.0000 C   0  0  0  0  0  0  0  0  0  0  0  0
   24.0100  -21.8400    0.0000 C   0  0  0  0  0  0  0  0  0  0  0  0
   22.7500  -22.5400    0.0000 C   0  0  0  0  0  0  0  0  0  0  0  0
   20.3700  -22.5400    0.0000 C   0  0  0  0  0  0  0  0  0  0  0  0
   19.1100  -21.8400    0.0000 N   0  0  0  0  0  0  0  0  0  0  0  0
   19.1100  -20.4400    0.0000 C   0  0  0  0  0  0  0  0  0  0  0  0
   20.3700  -19.7400    0.0000 C   0  0  0  0  0  0  0  0  0  0  0  0
   17.8500  -22.5400    0.0000 C   0  0  0  0  0  0  0  0  0  0  0  0
   16.6600  -21.8400    0.0000 C   0  0  0  0  0  0  0  0  0  0  0  0
   16.6600  -20.4400    0.0000 C   0  0  0  0  0  0  0  0  0  0  0  0
   17.8500  -19.7400    0.0000 O   0  0  0  0  0  0  0  0  0  0  0  0
   20.3700  -23.9400    0.0000 O   0  0  0  0  0  0  0  0  0  0  0  0
   22.7500  -23.9400    0.0000 O   0  0  0  0  0  0  0  0  0  0  0  0
   25.2000  -22.5400    0.0000 O   0  0  0  0  0  0  0  0  0  0  0  0
   25.2000  -19.7400    0.0000 C   0  0  0  0  0  0  0  0  0  0  0  0
   26.3900  -20.4400    0.0000 N   0  0  0  0  0  0  0  0  0  0  0  0
   25.2000  -18.3400    0.0000 O   0  0  0  0  0  0  0  0  0  0  0  0
   27.5800  -19.7400    0.0000 C   0  0  0  0  0  0  0  0  0  0  0  0
   28.7700  -20.4400    0.0000 C   0  0  0  0  0  0  0  0  0  0  0  0
   29.9600  -19.7400    0.0000 C   0  0  0  0  0  0  0  0  0  0  0  0
   31.2200  -20.4400    0.0000 C   0  0  0  0  0  0  0  0  0  0  0  0
   31.2200  -21.8400    0.0000 C   0  0  0  0  0  0  0  0  0  0  0  0
   30.0300  -22.5400    0.0000 C   0  0  0  0  0  0  0  0  0  0  0  0
   28.7700  -21.8400    0.0000 C   0  0  0  0  0  0  0  0  0  0  0  0
   27.5800  -22.5400    0.0000 F   0  0  0  0  0  0  0  0  0  0  0  0
   32.4100  -22.5400    0.0000 F   0  0  0  0  0  0  0  0  0  0  0  0
   19.1100  -23.2400    0.0000 C   0  0  0  0  0  0  0  0  0  0  0  0
   24.6400  -24.5700    0.0000 Na  0  0  0  0  0 15  0  0  0  0  0  0
   25.2700  -26.3900    0.0000 C   0  0  0  0  0  0  0  0  0  0  0  0
   25.2700  -27.7900    0.0000 C   0  0  0  0  0  0  0  0  0  0  0  0
   26.4600  -28.4900    0.0000 C   0  0  0  0  0  0  0  0  0  0  0  0
   27.7200  -27.7900    0.0000 C   0  0  0  0  0  0  0  0  0  0  0  0
   27.7200  -26.3900    0.0000 C   0  0  0  0  0  0  0  0  0  0  0  0
   26.4600  -25.6900    0.0000 C   0  0  0  0  0  0  0  0  0  0  0  0
   28.9100  -28.4900    0.0000 N   0  0  0  0  0  0  0  0  0  0  0  0
   30.1700  -27.7900    0.0000 C   0  0  0  0  0  0  0  0  0  0  0  0
   31.2900  -28.4900    0.0000 N   0  0  0  0  0  0  0  0  0  0  0  0
   32.5500  -27.7900    0.0000 C   0  0  0  0  0  0  0  0  0  0  0  0
   32.5500  -26.3900    0.0000 N   0  0  0  0  0  0  0  0  0  0  0  0
   31.3600  -25.6900    0.0000 C   0  0  0  0  0  0  0  0  0  0  0  0
   30.1700  -26.3900    0.0000 C   0  0  0  0  0  0  0  0  0  0  0  0
   33.8100  -28.4900    0.0000 N   0  0  0  0  0  0  0  0  0  0  0  0
   35.0000  -27.7900    0.0000 C   0  0  0  0  0  0  0  0  0  0  0  0
   36.1900  -28.4900    0.0000 C   0  0  0  0  0  0  0  0  0  0  0  0
   37.3800  -27.7900    0.0000 C   0  0  0  0  0  0  0  0  0  0  0  0
   37.3800  -26.3900    0.0000 C   0  0  0  0  0  0  0  0  0  0  0  0
   36.1900  -25.6900    0.0000 C   0  0  0  0  0  0  0  0  0  0  0  0
   35.0000  -26.3900    0.0000 C   0  0  0  0  0  0  0  0  0  0  0  0
   28.9100  -25.6900    0.0000 C   0  0  0  0  0  0  0  0  0  0  0  0
   38.6400  -25.6900    0.0000 C   0  0  0  0  0  0  0  0  0  0  0  0
   39.8300  -24.9900    0.0000 N   0  0  0  0  0  0  0  0  0  0  0  0
   24.0800  -25.6900    0.0000 C   0  0  0  0  0  0  0  0  0  0  0  0
   22.8200  -26.3900    0.0000 C   0  0  0  0  0  0  0  0  0  0  0  0
   21.6300  -25.6900    0.0000 C   0  0  0  0  0  0  0  0  0  0  0  0
   20.4400  -24.9900    0.0000 N   0  0  0  0  0  0  0  0  0  0  0  0
   26.4600  -29.8900    0.0000 C   0  0  0  0  0  0  0  0  0  0  0  0
   39.9000  -29.3300    0.0000 Cl  0  0  0  0  0  0  0  0  0  0  0  0
  1  2  1  0
  2  3  1  0
  3  4  2  0
  4  5  1  0
  5  6  1  0
  1  6  2  0
  1  7  1  0
  7  8  1  0
  8  9  1  0
  9 10  1  1
  2 10  1  0
  8 11  1  0
 11 12  1  0
 12 13  1  0
 13 14  1  0
  9 14  1  0
  7 15  2  0
  6 16  1  0
  5 17  2  0
  4 18  1  0
 18 19  1  0
 18 20  2  0
 19 21  1  0
 21 22  1  0
 22 23  2  0
 23 24  1  0
 24 25  2  0
 25 26  1  0
 26 27  2  0
 22 27  1  0
 27 28  1  0
 25 29  1  0
 11 30  1  6
 32 33  2  0
 33 34  1  0
 34 35  2  0
 35 36  1  0
 36 37  2  0
 32 37  1  0
 35 38  1  0
 38 39  1  0
 39 40  2  0
 40 41  1  0
 41 42  2  0
 42 43  1  0
 43 44  2  0
 39 44  1  0
 41 45  1  0
 45 46  1  0
 46 47  2  0
 47 48  1  0
 48 49  2  0
 49 50  1  0
 50 51  2  0
 46 51  1  0
 36 52  1  0
 49 53  1  0
 53 54  3  0
 32 55  1  0
 55 56  2  0
 56 57  1  0
 57 58  3  0
 34 59  1  0
M  CHG  2  16  -1  31   1
M  END
