 
 
 
 29 32  0  0  0  0  0  0  0  0999 V2000
   24.2200  -10.9200    0.0000 O   0  0  0  0  0  0  0  0  0  0  0  0
   22.8200  -10.9200    0.0000 C   0  0  0  0  0  0  0  0  0  0  0  0
   21.8400  -11.9000    0.0000 C   0  0  0  0  0  0  0  0  0  0  0  0
   21.8400  -13.3000    0.0000 C   0  0  0  0  0  0  0  0  0  0  0  0
   22.8200  -14.3500    0.0000 C   0  0  0  0  0  0  0  0  0  0  0  0
   24.2200  -14.3500    0.0000 O   0  0  0  0  0  0  0  0  0  0  0  0
   25.2000  -13.3000    0.0000 C   0  0  0  0  0  0  0  0  0  0  0  0
   25.2000  -11.9000    0.0000 C   0  0  0  0  0  0  0  0  0  0  0  0
   20.6500  -14.0000    0.0000 O   0  0  0  0  0  0  0  0  0  0  0  0
   19.3900  -13.3000    0.0000 C   0  0  0  0  0  0  0  0  0  0  0  0
   19.3900  -11.9000    0.0000 C   0  0  0  0  0  0  0  0  0  0  0  0
   20.6500  -11.2000    0.0000 O   0  0  0  0  0  0  0  0  0  0  0  0
   18.2000  -14.0000    0.0000 C   0  0  0  0  0  0  0  0  0  0  0  0
   17.0100  -13.3000    0.0000 C   0  0  0  0  0  0  0  0  0  0  0  0
   17.0100  -11.9000    0.0000 C   0  0  0  0  0  0  0  0  0  0  0  0
   18.2000  -11.2000    0.0000 C   0  0  0  0  0  0  0  0  0  0  0  0
   15.7500  -14.0000    0.0000 C   0  0  0  0  0  0  0  0  0  0  0  0
   14.5600  -13.3000    0.0000 N   0  0  0  0  0  0  0  0  0  0  0  0
   14.5600  -11.9000    0.0000 C   0  0  0  0  0  0  0  0  0  0  0  0
   15.7500  -11.2000    0.0000 N   0  0  0  0  0  0  0  0  0  0  0  0
   15.7500  -15.4000    0.0000 N   0  0  0  0  0  0  0  0  0  0  0  0
   16.9653  -16.0951    0.0000 C   0  0  0  0  0  0  0  0  0  0  0  0
   16.9711  -17.4997    0.0000 C   0  0  0  0  0  0  0  0  0  0  0  0
   18.1864  -18.1947    0.0000 C   0  0  0  0  0  0  0  0  0  0  0  0
   19.3959  -17.4897    0.0000 C   0  0  0  0  0  0  0  0  0  0  0  0
   19.3901  -16.0851    0.0000 C   0  0  0  0  0  0  0  0  0  0  0  0
   18.1748  -15.3901    0.0000 C   0  0  0  0  0  0  0  0  0  0  0  0
   18.1921  -19.6000    0.0000 C   0  0  0  0  0  0  0  0  0  0  0  0
   18.1921  -21.0000    0.0000 C   0  0  0  0  0  0  0  0  0  0  0  0
  1  2  1  0     0  0
  2  3  1  0     0  0
  4  5  1  0     0  0
  5  6  1  0     0  0
  6  7  1  0     0  0
  7  8  1  0     0  0
  8  1  1  0     0  0
  4  9  1  0     0  0
  9 10  1  0     0  0
 10 11  1  0     0  0
 11 12  1  0     0  0
  3 12  1  0     0  0
 10 13  2  0     0  0
 13 14  1  0     0  0
 14 15  2  0     0  0
 15 16  1  0     0  0
 11 16  2  0     0  0
 14 17  1  0     0  0
 17 18  2  0     0  0
 18 19  1  0     0  0
 19 20  2  0     0  0
 15 20  1  0     0  0
 17 21  1  0     0  0
 21 22  1  0     0  0
 22 23  2  0     0  0
 23 24  1  0     0  0
 24 25  2  0     0  0
 25 26  1  0     0  0
 26 27  2  0     0  0
 22 27  1  0     0  0
 24 28  1  0     0  0
 28 29  3  0     0  0
M  END
