 
     RDKit          2D

170173  0  0  0  0  0  0  0  0999 V2000
   14.2557  -16.0257    0.0000 C   0  0  0  0  0  0  0  0  0  0  0  0
   14.2557  -17.3764    0.0000 C   0  0  0  0  0  0  0  0  0  0  0  0
   15.4254  -18.0516    0.0000 C   0  0  0  0  0  0  0  0  0  0  0  0
   16.5951  -17.3764    0.0000 C   0  0  0  0  0  0  0  0  0  0  0  0
   16.5951  -16.0257    0.0000 C   0  0  0  0  0  0  0  0  0  0  0  0
   15.4254  -15.3504    0.0000 C   0  0  0  0  0  0  0  0  0  0  0  0
   15.4254  -13.9997    0.0000 Cl  0  0  0  0  0  0  0  0  0  0  0  0
   17.7648  -18.0516    0.0000 O   0  0  0  0  0  0  0  0  0  0  0  0
   18.9346  -17.3764    0.0000 C   0  0  0  0  0  0  0  0  0  0  0  0
   20.0898  -18.0434    0.0000 C   0  0  0  0  0  0  0  0  0  0  0  0
   21.2596  -17.3683    0.0000 C   0  0  0  0  0  0  0  0  0  0  0  0
   21.2597  -16.0176    0.0000 C   0  0  0  0  0  0  0  0  0  0  0  0
   20.1044  -15.3505    0.0000 N   0  0  0  0  0  0  0  0  0  0  0  0
   18.9347  -16.0257    0.0000 C   0  0  0  0  0  0  0  0  0  0  0  0
   20.0898  -19.3941    0.0000 C   0  0  0  0  0  0  0  0  0  0  0  0
   18.7392  -19.3941    0.0000 F   0  0  0  0  0  0  0  0  0  0  0  0
   21.4405  -19.3941    0.0000 F   0  0  0  0  0  0  0  0  0  0  0  0
   20.0898  -20.7447    0.0000 F   0  0  0  0  0  0  0  0  0  0  0  0
   20.1044  -13.9998    0.0000 C   0  0  0  0  0  0  0  0  0  0  0  0
   17.7650  -15.3504    0.0000 O   0  0  0  0  0  0  0  0  0  0  0  0
   13.0717  -18.0599    0.0000 C   0  0  0  0  0  0  0  0  0  0  0  0
   11.8872  -18.7438    0.0000 N   0  0  0  0  0  0  0  0  0  0  0  0
   21.3168  -13.2998    0.0000 C   0  0  0  0  0  0  0  0  0  0  0  0
   22.6234  -13.8818    0.0000 N   0  0  0  0  0  0  0  0  0  0  0  0
   23.5807  -12.8191    0.0000 C   0  0  0  0  0  0  0  0  0  0  0  0
   22.8658  -11.5802    0.0000 N   0  0  0  0  0  0  0  0  0  0  0  0
   21.4666  -11.8773    0.0000 N   0  0  0  0  0  0  0  0  0  0  0  0
   22.9857  -15.2341    0.0000 C   0  0  0  0  0  0  0  0  0  0  0  0
   24.9330  -13.1814    0.0000 O   0  0  0  0  0  0  0  0  0  0  0  0
   19.1100  -17.9200    0.0000 C   0  0  0  0  0  0  0  0  0  0  0  0
   17.9900  -17.0800    0.0000 O   0  0  0  0  0  0  0  0  0  0  0  0
   18.6900  -19.2500    0.0000 C   0  0  0  0  0  0  0  0  0  0  0  0
   16.8700  -17.9200    0.0000 C   0  0  0  0  0  0  0  0  0  0  0  0
   17.2900  -19.2500    0.0000 S   0  0  0  0  0  0  0  0  0  0  0  0
   15.6800  -17.2900    0.0000 C   0  0  0  0  0  0  0  0  0  0  0  0
   14.3500  -18.1300    0.0000 O   0  0  0  0  0  0  0  0  0  0  0  0
   20.3000  -15.8200    0.0000 C   0  0  0  0  0  0  0  0  0  0  0  0
   20.3000  -17.2200    0.0000 N   0  0  0  0  0  0  0  0  0  0  0  0
   21.4900  -17.9200    0.0000 C   0  0  0  0  0  0  0  0  0  0  0  0
   22.7500  -17.2200    0.0000 N   0  0  0  0  0  0  0  0  0  0  0  0
   22.7500  -15.8200    0.0000 C   0  0  0  0  0  0  0  0  0  0  0  0
   21.4900  -15.1200    0.0000 C   0  0  0  0  0  0  0  0  0  0  0  0
   21.4900  -19.3200    0.0000 O   0  0  0  0  0  0  0  0  0  0  0  0
   23.9400  -15.1200    0.0000 N   0  0  0  0  0  0  0  0  0  0  0  0
   30.8992  -18.5945    0.0000 C   0  0  0  0  0  0  0  0  0  0  0  0
   32.1576  -19.2936    0.0000 C   0  0  0  0  0  0  0  0  0  0  0  0
   33.3460  -18.5945    0.0000 C   0  0  0  0  0  0  0  0  0  0  0  0
   34.5345  -19.2936    0.0000 C   0  0  0  0  0  0  0  0  0  0  0  0
   35.7928  -18.5945    0.0000 O   0  0  0  0  0  0  0  0  0  0  0  0
   29.7108  -19.2936    0.0000 O   0  0  0  0  0  0  0  0  0  0  0  0
   30.8992  -17.1963    0.0000 O   0  0  0  0  0  0  0  0  0  0  0  0
   34.5345  -20.6917    0.0000 O   0  0  0  0  0  0  0  0  0  0  0  0
   26.5368  -16.8840    0.0000 C   0  0  0  0  0  0  0  0  0  0  0  0
   26.5368  -15.4243    0.0000 C   0  0  0  0  0  0  0  0  0  0  0  0
   25.2162  -17.3012    0.0000 N   0  0  0  0  0  0  0  0  0  0  0  0
   27.7880  -17.5096    0.0000 N   0  0  0  0  0  0  0  0  0  0  0  0
   25.2162  -15.0073    0.0000 N   0  0  0  0  0  0  0  0  0  0  0  0
   27.7880  -14.7987    0.0000 C   0  0  0  0  0  0  0  0  0  0  0  0
   24.3820  -16.1889    0.0000 C   0  0  0  0  0  0  0  0  0  0  0  0
   28.9697  -16.8840    0.0000 C   0  0  0  0  0  0  0  0  0  0  0  0
   28.9697  -15.4243    0.0000 N   0  0  0  0  0  0  0  0  0  0  0  0
   27.7880  -13.4085    0.0000 N   0  0  0  0  0  0  0  0  0  0  0  0
   25.2162  -18.6945    0.0000 C   0  0  0  0  0  0  0  0  0  0  0  0
   24.0155  -19.3876    0.0000 C   0  0  0  0  0  0  0  0  0  0  0  0
   22.8023  -18.6870    0.0000 O   0  0  0  0  0  0  0  0  0  0  0  0
   21.5805  -19.3928    0.0000 C   0  0  0  0  0  0  0  0  0  0  0  0
   20.3622  -18.6904    0.0000 P   0  0  0  0  0  0  0  0  0  0  0  0
   19.1554  -17.9937    0.0000 O   0  0  0  0  0  0  0  0  0  0  0  0
   19.6691  -19.8908    0.0000 O   0  0  0  0  0  0  0  0  0  0  0  0
   21.0616  -17.4784    0.0000 O   0  0  0  0  0  0  0  0  0  0  0  0
   19.1554  -16.5955    0.0000 C   0  0  0  0  0  0  0  0  0  0  0  0
   19.6691  -21.2890    0.0000 C   0  0  0  0  0  0  0  0  0  0  0  0
   17.9438  -15.8681    0.0000 O   0  0  0  0  0  0  0  0  0  0  0  0
   16.7329  -16.5671    0.0000 C   0  0  0  0  0  0  0  0  0  0  0  0
   15.5220  -15.8681    0.0000 O   0  0  0  0  0  0  0  0  0  0  0  0
   14.3112  -16.5671    0.0000 C   0  0  0  0  0  0  0  0  0  0  0  0
   13.1003  -15.8681    0.0000 C   0  0  0  0  0  0  0  0  0  0  0  0
   18.4331  -22.0200    0.0000 O   0  0  0  0  0  0  0  0  0  0  0  0
   17.2222  -21.3209    0.0000 C   0  0  0  0  0  0  0  0  0  0  0  0
   16.0114  -22.0200    0.0000 O   0  0  0  0  0  0  0  0  0  0  0  0
   14.8006  -21.3209    0.0000 C   0  0  0  0  0  0  0  0  0  0  0  0
   13.5897  -22.0200    0.0000 C   0  0  0  0  0  0  0  0  0  0  0  0
   16.7329  -17.9651    0.0000 O   0  0  0  0  0  0  0  0  0  0  0  0
   14.3112  -17.9652    0.0000 C   0  0  0  0  0  0  0  0  0  0  0  0
   17.2222  -19.9230    0.0000 O   0  0  0  0  0  0  0  0  0  0  0  0
   14.8006  -19.9229    0.0000 C   0  0  0  0  0  0  0  0  0  0  0  0
   24.0154  -20.7900    0.0000 C   0  0  0  0  0  0  0  0  0  0  0  0
   20.6991  -15.3146    0.0000 C   0  0  0  0  0  0  0  0  0  0  0  0
   20.6991  -13.8460    0.0000 C   0  0  0  0  0  0  0  0  0  0  0  0
   19.3705  -15.7341    0.0000 N   0  0  0  0  0  0  0  0  0  0  0  0
   21.9579  -15.9439    0.0000 N   0  0  0  0  0  0  0  0  0  0  0  0
   19.3705  -13.4265    0.0000 N   0  0  0  0  0  0  0  0  0  0  0  0
   21.9579  -13.2167    0.0000 C   0  0  0  0  0  0  0  0  0  0  0  0
   18.5313  -14.6153    0.0000 C   0  0  0  0  0  0  0  0  0  0  0  0
   23.1467  -15.3146    0.0000 C   0  0  0  0  0  0  0  0  0  0  0  0
   23.1467  -13.8460    0.0000 N   0  0  0  0  0  0  0  0  0  0  0  0
   21.9579  -11.8880    0.0000 N   0  0  0  0  0  0  0  0  0  0  0  0
   19.3705  -17.1327    0.0000 C   0  0  0  0  0  0  0  0  0  0  0  0
   18.1817  -17.8320    0.0000 C   0  0  0  0  0  0  0  0  0  0  0  0
   16.9929  -17.1327    0.0000 O   0  0  0  0  0  0  0  0  0  0  0  0
   15.7341  -17.8320    0.0000 C   0  0  0  0  0  0  0  0  0  0  0  0
   14.5453  -17.1327    0.0000 P   0  0  0  0  0  0  0  0  0  0  0  0
   13.3565  -16.4334    0.0000 O   0  0  0  0  0  0  0  0  0  0  0  0
   13.8460  -18.3215    0.0000 O   0  0  0  0  0  0  0  0  0  0  0  0
   15.2446  -15.9439    0.0000 O   0  0  0  0  0  0  0  0  0  0  0  0
   13.3565  -15.0348    0.0000 C   0  0  0  0  0  0  0  0  0  0  0  0
   13.8460  -19.7201    0.0000 C   0  0  0  0  0  0  0  0  0  0  0  0
   12.0978  -14.3355    0.0000 O   0  0  0  0  0  0  0  0  0  0  0  0
   10.9090  -15.0348    0.0000 C   0  0  0  0  0  0  0  0  0  0  0  0
    9.7202  -14.3355    0.0000 O   0  0  0  0  0  0  0  0  0  0  0  0
    8.4615  -15.0348    0.0000 C   0  0  0  0  0  0  0  0  0  0  0  0
    7.2727  -14.3355    0.0000 C   0  0  0  0  0  0  0  0  0  0  0  0
   12.5873  -20.4893    0.0000 O   0  0  0  0  0  0  0  0  0  0  0  0
   11.3985  -19.7900    0.0000 C   0  0  0  0  0  0  0  0  0  0  0  0
   10.2097  -20.4893    0.0000 O   0  0  0  0  0  0  0  0  0  0  0  0
    8.9510  -19.7900    0.0000 C   0  0  0  0  0  0  0  0  0  0  0  0
    7.7622  -20.4893    0.0000 C   0  0  0  0  0  0  0  0  0  0  0  0
   10.9090  -16.4334    0.0000 O   0  0  0  0  0  0  0  0  0  0  0  0
    8.4615  -16.4334    0.0000 C   0  0  0  0  0  0  0  0  0  0  0  0
   11.3985  -18.3915    0.0000 O   0  0  0  0  0  0  0  0  0  0  0  0
    8.9510  -18.3915    0.0000 C   0  0  0  0  0  0  0  0  0  0  0  0
   18.1817  -19.2306    0.0000 C   0  0  0  0  0  0  0  0  0  0  0  0
   25.7600  -19.1100    0.0000 P   0  0  0  0  0  0  0  0  0  0  0  0
   25.7600  -17.7100    0.0000 O   0  0  0  0  0  0  0  0  0  0  0  0
   27.1600  -19.1100    0.0000 O   0  0  0  0  0  0  0  0  0  0  0  0
   24.3600  -19.1100    0.0000 O   0  0  0  0  0  0  0  0  0  0  0  0
   25.7600  -20.5100    0.0000 O   0  0  0  0  0  0  0  0  0  0  0  0
   24.1342  -15.3190    0.0000 C   0  0  0  0  0  0  0  0  0  0  0  0
   24.1342  -13.8501    0.0000 C   0  0  0  0  0  0  0  0  0  0  0  0
   22.8051  -15.7387    0.0000 N   0  0  0  0  0  0  0  0  0  0  0  0
   25.3933  -15.9486    0.0000 N   0  0  0  0  0  0  0  0  0  0  0  0
   22.8051  -13.4304    0.0000 N   0  0  0  0  0  0  0  0  0  0  0  0
   25.3933  -13.2205    0.0000 C   0  0  0  0  0  0  0  0  0  0  0  0
   21.9657  -14.6195    0.0000 C   0  0  0  0  0  0  0  0  0  0  0  0
   26.5824  -15.3190    0.0000 C   0  0  0  0  0  0  0  0  0  0  0  0
   26.5824  -13.8501    0.0000 N   0  0  0  0  0  0  0  0  0  0  0  0
   25.3933  -11.8915    0.0000 N   0  0  0  0  0  0  0  0  0  0  0  0
   22.8051  -17.1377    0.0000 C   0  0  0  0  0  0  0  0  0  0  0  0
   21.6160  -17.8372    0.0000 C   0  0  0  0  0  0  0  0  0  0  0  0
   20.4268  -17.1377    0.0000 O   0  0  0  0  0  0  0  0  0  0  0  0
   19.1677  -17.8372    0.0000 C   0  0  0  0  0  0  0  0  0  0  0  0
   17.9786  -17.1377    0.0000 P   0  0  0  0  0  0  0  0  0  0  0  0
   16.7894  -16.4382    0.0000 O   0  0  0  0  0  0  0  0  0  0  0  0
   17.2791  -18.3269    0.0000 O   0  0  0  0  0  0  0  0  0  0  0  0
   18.6781  -15.9486    0.0000 O   0  0  0  0  0  0  0  0  0  0  0  0
   16.7894  -15.0392    0.0000 C   0  0  0  0  0  0  0  0  0  0  0  0
   17.2791  -19.7259    0.0000 C   0  0  0  0  0  0  0  0  0  0  0  0
   15.5303  -14.3397    0.0000 O   0  0  0  0  0  0  0  0  0  0  0  0
   14.3412  -15.0392    0.0000 C   0  0  0  0  0  0  0  0  0  0  0  0
   13.1520  -14.3397    0.0000 O   0  0  0  0  0  0  0  0  0  0  0  0
   11.8929  -15.0392    0.0000 C   0  0  0  0  0  0  0  0  0  0  0  0
   10.7038  -14.3397    0.0000 C   0  0  0  0  0  0  0  0  0  0  0  0
   16.0200  -20.4953    0.0000 O   0  0  0  0  0  0  0  0  0  0  0  0
   14.8308  -19.7958    0.0000 C   0  0  0  0  0  0  0  0  0  0  0  0
   13.6417  -20.4953    0.0000 O   0  0  0  0  0  0  0  0  0  0  0  0
   12.3826  -19.7958    0.0000 C   0  0  0  0  0  0  0  0  0  0  0  0
   11.1934  -20.4953    0.0000 C   0  0  0  0  0  0  0  0  0  0  0  0
   14.3412  -16.4382    0.0000 O   0  0  0  0  0  0  0  0  0  0  0  0
   11.8929  -16.4382    0.0000 C   0  0  0  0  0  0  0  0  0  0  0  0
   14.8308  -18.3968    0.0000 O   0  0  0  0  0  0  0  0  0  0  0  0
   12.3826  -18.3968    0.0000 C   0  0  0  0  0  0  0  0  0  0  0  0
   21.6160  -19.2362    0.0000 C   0  0  0  0  0  0  0  0  0  0  0  0
   28.7700  -18.0600    0.0000 C   0  0  0  0  0  0  0  0  0  0  0  0
   30.1700  -18.0600    0.0000 C   0  0  0  0  0  0  0  0  0  0  0  0
   30.8700  -19.2724    0.0000 C   0  0  0  0  0  0  0  0  0  0  0  0
   28.0700  -19.2724    0.0000 C   0  0  0  0  0  0  0  0  0  0  0  0
   26.6702  -19.2724    0.0000 O   0  0  0  0  0  0  0  0  0  0  0  0
   28.7604  -20.4679    0.0000 O   0  0  0  0  0  0  0  0  0  0  0  0
   32.2698  -19.2724    0.0000 O   0  0  0  0  0  0  0  0  0  0  0  0
   30.1796  -20.4679    0.0000 O   0  0  0  0  0  0  0  0  0  0  0  0
  1  2  2  0
  2  3  1  0
  3  4  2  0
  4  5  1  0
  5  6  2  0
  1  6  1  0
  6  7  1  0
  4  8  1  0
  8  9  1  0
  9 10  2  0
 10 11  1  0
 11 12  2  0
 12 13  1  0
 13 14  1  0
  9 14  1  0
 10 15  1  0
 15 16  1  0
 15 17  1  0
 15 18  1  0
 13 19  1  0
 14 20  2  0
  2 21  1  0
 21 22  3  0
 19 23  1  0
 23 24  1  0
 24 25  1  0
 25 26  1  0
 26 27  1  0
 23 27  2  0
 24 28  1  0
 25 29  2  0
 30 31  1  0
 30 32  1  0
 31 33  1  0
 32 34  1  0
 33 35  1  6
 35 36  1  0
 33 34  1  0
 37 38  1  0
 38 39  1  0
 39 40  1  0
 40 41  2  0
 41 42  1  0
 37 42  2  0
 30 38  1  6
 39 43  2  0
 41 44  1  0
 45 46  1  0
 46 47  2  0
 47 48  1  0
 48 49  1  0
 45 50  1  0
 45 51  2  0
 48 52  2  0
 54 57  1  0
 54 58  1  0
 55 59  1  0
 56 60  2  0
 58 61  2  0
 57 59  2  0
 60 61  1  0
 53 54  2  0
 53 55  1  0
 53 56  1  0
 58 62  1  0
 55 63  1  0
 63 64  1  0
 64 65  1  0
 65 66  1  0
 66 67  1  0
 67 68  1  0
 67 69  1  0
 67 70  2  0
 68 71  1  0
 69 72  1  0
 71 73  1  0
 73 74  1  0
 74 75  1  0
 75 76  1  0
 76 77  1  0
 72 78  1  0
 78 79  1  0
 79 80  1  0
 80 81  1  0
 81 82  1  0
 74 83  2  0
 76 84  1  0
 79 85  2  0
 81 86  1  0
 64 87  1  1
 89 92  1  0
 89 93  1  0
 90 94  1  0
 91 95  2  0
 93 96  2  0
 92 94  2  0
 95 96  1  0
 88 89  2  0
 88 90  1  0
 88 91  1  0
 93 97  1  0
 90 98  1  0
 98 99  1  0
 99100  1  0
100101  1  0
101102  1  0
102103  1  0
102104  1  0
102105  2  0
103106  1  0
104107  1  0
106108  1  0
108109  1  0
109110  1  0
110111  1  0
111112  1  0
107113  1  0
113114  1  0
114115  1  0
115116  1  0
116117  1  0
109118  2  0
111119  1  0
114120  2  0
116121  1  0
 99122  1  1
123124  2  0
123125  1  0
123126  1  0
123127  1  0
129132  1  0
129133  1  0
130134  1  0
131135  2  0
133136  2  0
132134  2  0
135136  1  0
128129  2  0
128130  1  0
128131  1  0
133137  1  0
130138  1  0
138139  1  0
139140  1  0
140141  1  0
141142  1  0
142143  1  0
142144  1  0
142145  2  0
143146  1  0
144147  1  0
146148  1  0
148149  1  0
149150  1  0
150151  1  0
151152  1  0
147153  1  0
153154  1  0
154155  1  0
155156  1  0
156157  1  0
149158  2  0
151159  1  0
154160  2  0
156161  1  0
139162  1  1
163164  2  0
164165  1  0
163166  1  0
166167  1  0
166168  2  0
165169  2  0
165170  1  0
M  END
