 
     RDKit          2D

141142  0  0  1  0  0  0  0  0999 V2000
   19.1100  -17.9200    0.0000 C   0  0  0  0  0  0  0  0  0  0  0  0
   17.9900  -17.0800    0.0000 O   0  0  0  0  0  0  0  0  0  0  0  0
   18.6900  -19.2500    0.0000 C   0  0  0  0  0  0  0  0  0  0  0  0
   16.8700  -17.9200    0.0000 C   0  0  0  0  0  0  0  0  0  0  0  0
   17.2900  -19.2500    0.0000 S   0  0  0  0  0  0  0  0  0  0  0  0
   15.6800  -17.2900    0.0000 C   0  0  0  0  0  0  0  0  0  0  0  0
   14.3500  -18.1300    0.0000 O   0  0  0  0  0  0  0  0  0  0  0  0
   20.3000  -15.8200    0.0000 C   0  0  0  0  0  0  0  0  0  0  0  0
   20.3000  -17.2200    0.0000 N   0  0  0  0  0  0  0  0  0  0  0  0
   21.4900  -17.9200    0.0000 C   0  0  0  0  0  0  0  0  0  0  0  0
   22.7500  -17.2200    0.0000 N   0  0  0  0  0  0  0  0  0  0  0  0
   22.7500  -15.8200    0.0000 C   0  0  0  0  0  0  0  0  0  0  0  0
   21.4900  -15.1200    0.0000 C   0  0  0  0  0  0  0  0  0  0  0  0
   21.4900  -19.3200    0.0000 O   0  0  0  0  0  0  0  0  0  0  0  0
   23.9400  -15.1200    0.0000 N   0  0  0  0  0  0  0  0  0  0  0  0
   30.8992  -18.5945    0.0000 C   0  0  0  0  0  0  0  0  0  0  0  0
   32.1576  -19.2936    0.0000 C   0  0  0  0  0  0  0  0  0  0  0  0
   33.3460  -18.5945    0.0000 C   0  0  0  0  0  0  0  0  0  0  0  0
   34.5345  -19.2936    0.0000 C   0  0  0  0  0  0  0  0  0  0  0  0
   35.7928  -18.5945    0.0000 O   0  0  0  0  0  0  0  0  0  0  0  0
   29.7108  -19.2936    0.0000 O   0  0  0  0  0  0  0  0  0  0  0  0
   30.8992  -17.1963    0.0000 O   0  0  0  0  0  0  0  0  0  0  0  0
   34.5345  -20.6917    0.0000 O   0  0  0  0  0  0  0  0  0  0  0  0
   26.5368  -16.8840    0.0000 C   0  0  0  0  0  0  0  0  0  0  0  0
   26.5368  -15.4243    0.0000 C   0  0  0  0  0  0  0  0  0  0  0  0
   25.2162  -17.3012    0.0000 N   0  0  0  0  0  0  0  0  0  0  0  0
   27.7880  -17.5096    0.0000 N   0  0  0  0  0  0  0  0  0  0  0  0
   25.2162  -15.0073    0.0000 N   0  0  0  0  0  0  0  0  0  0  0  0
   27.7880  -14.7987    0.0000 C   0  0  0  0  0  0  0  0  0  0  0  0
   24.3820  -16.1889    0.0000 C   0  0  0  0  0  0  0  0  0  0  0  0
   28.9697  -16.8840    0.0000 C   0  0  0  0  0  0  0  0  0  0  0  0
   28.9697  -15.4243    0.0000 N   0  0  0  0  0  0  0  0  0  0  0  0
   27.7880  -13.4085    0.0000 N   0  0  0  0  0  0  0  0  0  0  0  0
   25.2162  -18.6945    0.0000 C   0  0  0  0  0  0  0  0  0  0  0  0
   24.0155  -19.3876    0.0000 C   0  0  0  0  0  0  0  0  0  0  0  0
   22.8023  -18.6870    0.0000 O   0  0  0  0  0  0  0  0  0  0  0  0
   21.5805  -19.3928    0.0000 C   0  0  0  0  0  0  0  0  0  0  0  0
   20.3622  -18.6904    0.0000 P   0  0  0  0  0  0  0  0  0  0  0  0
   19.1554  -17.9937    0.0000 O   0  0  0  0  0  0  0  0  0  0  0  0
   19.6691  -19.8908    0.0000 O   0  0  0  0  0  0  0  0  0  0  0  0
   21.0616  -17.4784    0.0000 O   0  0  0  0  0  0  0  0  0  0  0  0
   19.1554  -16.5955    0.0000 C   0  0  0  0  0  0  0  0  0  0  0  0
   19.6691  -21.2890    0.0000 C   0  0  0  0  0  0  0  0  0  0  0  0
   17.9438  -15.8681    0.0000 O   0  0  0  0  0  0  0  0  0  0  0  0
   16.7329  -16.5671    0.0000 C   0  0  0  0  0  0  0  0  0  0  0  0
   15.5220  -15.8681    0.0000 O   0  0  0  0  0  0  0  0  0  0  0  0
   14.3112  -16.5671    0.0000 C   0  0  0  0  0  0  0  0  0  0  0  0
   13.1003  -15.8681    0.0000 C   0  0  0  0  0  0  0  0  0  0  0  0
   18.4331  -22.0200    0.0000 O   0  0  0  0  0  0  0  0  0  0  0  0
   17.2222  -21.3209    0.0000 C   0  0  0  0  0  0  0  0  0  0  0  0
   16.0114  -22.0200    0.0000 O   0  0  0  0  0  0  0  0  0  0  0  0
   14.8006  -21.3209    0.0000 C   0  0  0  0  0  0  0  0  0  0  0  0
   13.5897  -22.0200    0.0000 C   0  0  0  0  0  0  0  0  0  0  0  0
   16.7329  -17.9651    0.0000 O   0  0  0  0  0  0  0  0  0  0  0  0
   14.3112  -17.9652    0.0000 C   0  0  0  0  0  0  0  0  0  0  0  0
   17.2222  -19.9230    0.0000 O   0  0  0  0  0  0  0  0  0  0  0  0
   14.8006  -19.9229    0.0000 C   0  0  0  0  0  0  0  0  0  0  0  0
   24.0154  -20.7900    0.0000 C   0  0  0  0  0  0  0  0  0  0  0  0
   20.6991  -15.3146    0.0000 C   0  0  0  0  0  0  0  0  0  0  0  0
   20.6991  -13.8460    0.0000 C   0  0  0  0  0  0  0  0  0  0  0  0
   19.3705  -15.7341    0.0000 N   0  0  0  0  0  0  0  0  0  0  0  0
   21.9579  -15.9439    0.0000 N   0  0  0  0  0  0  0  0  0  0  0  0
   19.3705  -13.4265    0.0000 N   0  0  0  0  0  0  0  0  0  0  0  0
   21.9579  -13.2167    0.0000 C   0  0  0  0  0  0  0  0  0  0  0  0
   18.5313  -14.6153    0.0000 C   0  0  0  0  0  0  0  0  0  0  0  0
   23.1467  -15.3146    0.0000 C   0  0  0  0  0  0  0  0  0  0  0  0
   23.1467  -13.8460    0.0000 N   0  0  0  0  0  0  0  0  0  0  0  0
   21.9579  -11.8880    0.0000 N   0  0  0  0  0  0  0  0  0  0  0  0
   19.3705  -17.1327    0.0000 C   0  0  0  0  0  0  0  0  0  0  0  0
   18.1817  -17.8320    0.0000 C   0  0  0  0  0  0  0  0  0  0  0  0
   16.9929  -17.1327    0.0000 O   0  0  0  0  0  0  0  0  0  0  0  0
   15.7341  -17.8320    0.0000 C   0  0  0  0  0  0  0  0  0  0  0  0
   14.5453  -17.1327    0.0000 P   0  0  0  0  0  0  0  0  0  0  0  0
   13.3565  -16.4334    0.0000 O   0  0  0  0  0  0  0  0  0  0  0  0
   13.8460  -18.3215    0.0000 O   0  0  0  0  0  0  0  0  0  0  0  0
   15.2446  -15.9439    0.0000 O   0  0  0  0  0  0  0  0  0  0  0  0
   13.3565  -15.0348    0.0000 C   0  0  0  0  0  0  0  0  0  0  0  0
   13.8460  -19.7201    0.0000 C   0  0  0  0  0  0  0  0  0  0  0  0
   12.0978  -14.3355    0.0000 O   0  0  0  0  0  0  0  0  0  0  0  0
   10.9090  -15.0348    0.0000 C   0  0  0  0  0  0  0  0  0  0  0  0
    9.7202  -14.3355    0.0000 O   0  0  0  0  0  0  0  0  0  0  0  0
    8.4615  -15.0348    0.0000 C   0  0  0  0  0  0  0  0  0  0  0  0
    7.2727  -14.3355    0.0000 C   0  0  0  0  0  0  0  0  0  0  0  0
   12.5873  -20.4893    0.0000 O   0  0  0  0  0  0  0  0  0  0  0  0
   11.3985  -19.7900    0.0000 C   0  0  0  0  0  0  0  0  0  0  0  0
   10.2097  -20.4893    0.0000 O   0  0  0  0  0  0  0  0  0  0  0  0
    8.9510  -19.7900    0.0000 C   0  0  0  0  0  0  0  0  0  0  0  0
    7.7622  -20.4893    0.0000 C   0  0  0  0  0  0  0  0  0  0  0  0
   10.9090  -16.4334    0.0000 O   0  0  0  0  0  0  0  0  0  0  0  0
    8.4615  -16.4334    0.0000 C   0  0  0  0  0  0  0  0  0  0  0  0
   11.3985  -18.3915    0.0000 O   0  0  0  0  0  0  0  0  0  0  0  0
    8.9510  -18.3915    0.0000 C   0  0  0  0  0  0  0  0  0  0  0  0
   18.1817  -19.2306    0.0000 C   0  0  0  0  0  0  0  0  0  0  0  0
   25.7600  -19.1100    0.0000 P   0  0  0  0  0  0  0  0  0  0  0  0
   25.7600  -17.7100    0.0000 O   0  0  0  0  0  0  0  0  0  0  0  0
   27.1600  -19.1100    0.0000 O   0  0  0  0  0  0  0  0  0  0  0  0
   24.3600  -19.1100    0.0000 O   0  0  0  0  0  0  0  0  0  0  0  0
   25.7600  -20.5100    0.0000 O   0  0  0  0  0  0  0  0  0  0  0  0
   24.1342  -15.3190    0.0000 C   0  0  0  0  0  0  0  0  0  0  0  0
   24.1342  -13.8501    0.0000 C   0  0  0  0  0  0  0  0  0  0  0  0
   22.8051  -15.7387    0.0000 N   0  0  0  0  0  0  0  0  0  0  0  0
   25.3933  -15.9486    0.0000 N   0  0  0  0  0  0  0  0  0  0  0  0
   22.8051  -13.4304    0.0000 N   0  0  0  0  0  0  0  0  0  0  0  0
   25.3933  -13.2205    0.0000 C   0  0  0  0  0  0  0  0  0  0  0  0
   21.9657  -14.6195    0.0000 C   0  0  0  0  0  0  0  0  0  0  0  0
   26.5824  -15.3190    0.0000 C   0  0  0  0  0  0  0  0  0  0  0  0
   26.5824  -13.8501    0.0000 N   0  0  0  0  0  0  0  0  0  0  0  0
   25.3933  -11.8915    0.0000 N   0  0  0  0  0  0  0  0  0  0  0  0
   22.8051  -17.1377    0.0000 C   0  0  0  0  0  0  0  0  0  0  0  0
   21.6160  -17.8372    0.0000 C   0  0  0  0  0  0  0  0  0  0  0  0
   20.4268  -17.1377    0.0000 O   0  0  0  0  0  0  0  0  0  0  0  0
   19.1677  -17.8372    0.0000 C   0  0  0  0  0  0  0  0  0  0  0  0
   17.9786  -17.1377    0.0000 P   0  0  0  0  0  0  0  0  0  0  0  0
   16.7894  -16.4382    0.0000 O   0  0  0  0  0  0  0  0  0  0  0  0
   17.2791  -18.3269    0.0000 O   0  0  0  0  0  0  0  0  0  0  0  0
   18.6781  -15.9486    0.0000 O   0  0  0  0  0  0  0  0  0  0  0  0
   16.7894  -15.0392    0.0000 C   0  0  0  0  0  0  0  0  0  0  0  0
   17.2791  -19.7259    0.0000 C   0  0  0  0  0  0  0  0  0  0  0  0
   15.5303  -14.3397    0.0000 O   0  0  0  0  0  0  0  0  0  0  0  0
   14.3412  -15.0392    0.0000 C   0  0  0  0  0  0  0  0  0  0  0  0
   13.1520  -14.3397    0.0000 O   0  0  0  0  0  0  0  0  0  0  0  0
   11.8929  -15.0392    0.0000 C   0  0  0  0  0  0  0  0  0  0  0  0
   10.7038  -14.3397    0.0000 C   0  0  0  0  0  0  0  0  0  0  0  0
   16.0200  -20.4953    0.0000 O   0  0  0  0  0  0  0  0  0  0  0  0
   14.8308  -19.7958    0.0000 C   0  0  0  0  0  0  0  0  0  0  0  0
   13.6417  -20.4953    0.0000 O   0  0  0  0  0  0  0  0  0  0  0  0
   12.3826  -19.7958    0.0000 C   0  0  0  0  0  0  0  0  0  0  0  0
   11.1934  -20.4953    0.0000 C   0  0  0  0  0  0  0  0  0  0  0  0
   14.3412  -16.4382    0.0000 O   0  0  0  0  0  0  0  0  0  0  0  0
   11.8929  -16.4382    0.0000 C   0  0  0  0  0  0  0  0  0  0  0  0
   14.8308  -18.3968    0.0000 O   0  0  0  0  0  0  0  0  0  0  0  0
   12.3826  -18.3968    0.0000 C   0  0  0  0  0  0  0  0  0  0  0  0
   21.6160  -19.2362    0.0000 C   0  0  0  0  0  0  0  0  0  0  0  0
   28.7700  -18.0600    0.0000 C   0  0  0  0  0  0  0  0  0  0  0  0
   30.1700  -18.0600    0.0000 C   0  0  0  0  0  0  0  0  0  0  0  0
   30.8700  -19.2724    0.0000 C   0  0  0  0  0  0  0  0  0  0  0  0
   28.0700  -19.2724    0.0000 C   0  0  0  0  0  0  0  0  0  0  0  0
   26.6702  -19.2724    0.0000 O   0  0  0  0  0  0  0  0  0  0  0  0
   28.7604  -20.4679    0.0000 O   0  0  0  0  0  0  0  0  0  0  0  0
   32.2698  -19.2724    0.0000 O   0  0  0  0  0  0  0  0  0  0  0  0
   30.1796  -20.4679    0.0000 O   0  0  0  0  0  0  0  0  0  0  0  0
  1  2  1  0
  1  3  1  0
  2  4  1  0
  3  5  1  0
  4  6  1  6
  6  7  1  0
  4  5  1  0
  8  9  1  0
  9 10  1  0
 10 11  1  0
 11 12  2  0
 12 13  1  0
  8 13  2  0
  1  9  1  6
 10 14  2  0
 12 15  1  0
 16 17  1  0
 17 18  2  0
 18 19  1  0
 19 20  1  0
 16 21  1  0
 16 22  2  0
 19 23  2  0
 25 28  1  0
 25 29  1  0
 26 30  1  0
 27 31  2  0
 29 32  2  0
 28 30  2  0
 31 32  1  0
 24 25  2  0
 24 26  1  0
 24 27  1  0
 29 33  1  0
 26 34  1  0
 34 35  1  0
 35 36  1  0
 36 37  1  0
 37 38  1  0
 38 39  1  0
 38 40  1  0
 38 41  2  0
 39 42  1  0
 40 43  1  0
 42 44  1  0
 44 45  1  0
 45 46  1  0
 46 47  1  0
 47 48  1  0
 43 49  1  0
 49 50  1  0
 50 51  1  0
 51 52  1  0
 52 53  1  0
 45 54  2  0
 47 55  1  0
 50 56  2  0
 52 57  1  0
 35 58  1  1
 60 63  1  0
 60 64  1  0
 61 65  1  0
 62 66  2  0
 64 67  2  0
 63 65  2  0
 66 67  1  0
 59 60  2  0
 59 61  1  0
 59 62  1  0
 64 68  1  0
 61 69  1  0
 69 70  1  0
 70 71  1  0
 71 72  1  0
 72 73  1  0
 73 74  1  0
 73 75  1  0
 73 76  2  0
 74 77  1  0
 75 78  1  0
 77 79  1  0
 79 80  1  0
 80 81  1  0
 81 82  1  0
 82 83  1  0
 78 84  1  0
 84 85  1  0
 85 86  1  0
 86 87  1  0
 87 88  1  0
 80 89  2  0
 82 90  1  0
 85 91  2  0
 87 92  1  0
 70 93  1  1
 94 95  2  0
 94 96  1  0
 94 97  1  0
 94 98  1  0
100103  1  0
100104  1  0
101105  1  0
102106  2  0
104107  2  0
103105  2  0
106107  1  0
 99100  2  0
 99101  1  0
 99102  1  0
104108  1  0
101109  1  0
109110  1  0
110111  1  0
111112  1  0
112113  1  0
113114  1  0
113115  1  0
113116  2  0
114117  1  0
115118  1  0
117119  1  0
119120  1  0
120121  1  0
121122  1  0
122123  1  0
118124  1  0
124125  1  0
125126  1  0
126127  1  0
127128  1  0
120129  2  0
122130  1  0
125131  2  0
127132  1  0
110133  1  1
134135  2  0
135136  1  0
134137  1  0
137138  1  0
137139  2  0
136140  2  0
136141  1  0
M  END
