 
     RDKit          2D

 91 98  0  0  1  0  0  0  0  0999 V2000
    9.1244  -16.2075    0.0000 C   0  0  0  0  0  0  0  0  0  0  0  0
    9.1244  -17.6104    0.0000 C   0  0  0  0  0  0  0  0  0  0  0  0
   10.3392  -18.3119    0.0000 C   0  0  0  0  0  0  0  0  0  0  0  0
   11.5543  -17.6104    0.0000 C   0  0  0  0  0  0  0  0  0  0  0  0
   11.5543  -16.2075    0.0000 C   0  0  0  0  0  0  0  0  0  0  0  0
   10.3392  -15.5060    0.0000 C   0  0  0  0  0  0  0  0  0  0  0  0
   12.7692  -18.3119    0.0000 C   0  0  0  0  0  0  0  0  0  0  0  0
   13.9842  -17.6104    0.0000 C   0  0  0  0  0  0  0  0  0  0  0  0
   13.9842  -16.2075    0.0000 C   0  0  0  0  0  0  0  0  0  0  0  0
   12.7692  -15.5060    0.0000 O   0  0  0  0  0  0  0  0  0  0  0  0
   15.1843  -15.5145    0.0000 C   0  0  0  0  0  0  0  0  0  0  0  0
    7.9094  -18.3119    0.0000 F   0  0  0  0  0  0  0  0  0  0  0  0
   16.3751  -16.2019    0.0000 C   0  0  0  0  0  0  0  0  0  0  0  0
   15.1844  -14.1033    0.0000 O   0  0  0  0  0  0  0  0  0  0  0  0
   17.5684  -15.5129    0.0000 N   0  0  0  0  0  0  0  0  0  0  0  0
   18.7605  -16.2011    0.0000 C   0  0  0  0  0  0  0  0  0  0  0  0
   19.9531  -15.5125    0.0000 C   0  0  0  0  0  0  0  0  0  0  0  0
   21.1457  -16.2009    0.0000 C   0  0  0  0  0  0  0  0  0  0  0  0
   19.9532  -14.1032    0.0000 O   0  0  0  0  0  0  0  0  0  0  0  0
   21.1458  -17.6102    0.0000 C   0  0  0  0  0  0  0  0  0  0  0  0
   22.3609  -18.3115    0.0000 C   0  0  0  0  0  0  0  0  0  0  0  0
   23.5758  -17.6099    0.0000 C   0  0  0  0  0  0  0  0  0  0  0  0
   23.5756  -16.2007    0.0000 C   0  0  0  0  0  0  0  0  0  0  0  0
   22.3606  -15.4994    0.0000 O   0  0  0  0  0  0  0  0  0  0  0  0
   24.7908  -18.3113    0.0000 C   0  0  0  0  0  0  0  0  0  0  0  0
   26.0057  -17.6097    0.0000 C   0  0  0  0  0  0  0  0  0  0  0  0
   26.0056  -16.2005    0.0000 C   0  0  0  0  0  0  0  0  0  0  0  0
   24.7906  -15.4992    0.0000 C   0  0  0  0  0  0  0  0  0  0  0  0
   27.2390  -18.3218    0.0000 F   0  0  0  0  0  0  0  0  0  0  0  0
   29.3300  -16.0300    0.0000 Cl  0  0  0  0  0  0  0  0  0  0  0  0
   10.1744  -16.2075    0.0000 C   0  0  0  0  0  0  0  0  0  0  0  0
   10.1744  -17.6104    0.0000 C   0  0  0  0  0  0  0  0  0  0  0  0
   11.3893  -18.3119    0.0000 C   0  0  0  0  0  0  0  0  0  0  0  0
   12.6044  -17.6104    0.0000 C   0  0  0  0  0  0  0  0  0  0  0  0
   12.6044  -16.2075    0.0000 C   0  0  0  0  0  0  0  0  0  0  0  0
   11.3893  -15.5060    0.0000 C   0  0  0  0  0  0  0  0  0  0  0  0
   13.8193  -18.3119    0.0000 C   0  0  0  0  0  0  0  0  0  0  0  0
   15.0343  -17.6104    0.0000 C   0  0  0  0  0  0  0  0  0  0  0  0
   15.0343  -16.2075    0.0000 C   0  0  0  0  0  0  0  0  0  0  0  0
   13.8193  -15.5060    0.0000 O   0  0  0  0  0  0  0  0  0  0  0  0
   16.2344  -15.5145    0.0000 C   0  0  0  0  0  0  0  0  0  0  0  0
    8.9594  -18.3119    0.0000 F   0  0  0  0  0  0  0  0  0  0  0  0
   17.4252  -16.2019    0.0000 C   0  0  0  0  0  0  0  0  0  0  0  0
   16.2345  -14.1033    0.0000 O   0  0  0  0  0  0  0  0  0  0  0  0
   18.6185  -15.5129    0.0000 N   0  0  0  0  0  0  0  0  0  0  0  0
   19.8106  -16.2011    0.0000 C   0  0  0  0  0  0  0  0  0  0  0  0
   21.0032  -15.5125    0.0000 C   0  0  0  0  0  0  0  0  0  0  0  0
   22.1958  -16.2009    0.0000 C   0  0  0  0  0  0  0  0  0  0  0  0
   21.0033  -14.1032    0.0000 O   0  0  0  0  0  0  0  0  0  0  0  0
   22.1959  -17.6102    0.0000 C   0  0  0  0  0  0  0  0  0  0  0  0
   23.4109  -18.3115    0.0000 C   0  0  0  0  0  0  0  0  0  0  0  0
   24.6258  -17.6099    0.0000 C   0  0  0  0  0  0  0  0  0  0  0  0
   24.6256  -16.2007    0.0000 C   0  0  0  0  0  0  0  0  0  0  0  0
   23.4106  -15.4994    0.0000 O   0  0  0  0  0  0  0  0  0  0  0  0
   25.8408  -18.3113    0.0000 C   0  0  0  0  0  0  0  0  0  0  0  0
   27.0557  -17.6097    0.0000 C   0  0  0  0  0  0  0  0  0  0  0  0
   27.0556  -16.2005    0.0000 C   0  0  0  0  0  0  0  0  0  0  0  0
   25.8406  -15.4992    0.0000 C   0  0  0  0  0  0  0  0  0  0  0  0
   28.2890  -18.3218    0.0000 F   0  0  0  0  0  0  0  0  0  0  0  0
   19.4226  -22.2154    0.0000 C   0  0  0  0  0  0  0  0  0  0  0  0
   19.4226  -23.6234    0.0000 C   0  0  0  0  0  0  0  0  0  0  0  0
   20.6194  -24.3274    0.0000 C   0  0  0  0  0  0  0  0  0  0  0  0
   21.8865  -23.6234    0.0000 C   0  0  0  0  0  0  0  0  0  0  0  0
   21.8865  -22.2154    0.0000 C   0  0  0  0  0  0  0  0  0  0  0  0
   20.6194  -21.5115    0.0000 C   0  0  0  0  0  0  0  0  0  0  0  0
   23.0833  -21.5115    0.0000 C   0  0  0  0  0  0  0  0  0  0  0  0
   24.2801  -22.2154    0.0000 C   0  0  0  0  0  0  0  0  0  0  0  0
   25.5472  -21.5115    0.0000 C   0  0  0  0  0  0  0  0  0  0  0  0
   25.5472  -20.1035    0.0000 C   0  0  0  0  0  0  0  0  0  0  0  0
   24.3504  -19.3995    0.0000 C   0  0  0  0  0  0  0  0  0  0  0  0
   23.0833  -20.1035    0.0000 C   0  0  0  0  0  0  0  0  0  0  0  0
   20.6194  -20.1035    0.0000 C   0  0  0  0  0  0  0  0  0  0  0  0
   21.7457  -19.2587    0.0000 N   0  0  0  0  0  0  0  0  0  0  0  0
   21.3233  -17.9916    0.0000 N   0  0  0  0  0  0  0  0  0  0  0  0
   19.9154  -17.9916    0.0000 N   0  0  0  0  0  0  0  0  0  0  0  0
   19.4930  -19.2587    0.0000 N   0  0  0  0  0  0  0  0  0  0  0  0
   26.7440  -19.3995    0.0000 C   0  0  0  0  0  0  0  0  0  0  0  0
   26.7440  -17.9916    0.0000 N   0  0  0  0  0  0  0  0  0  0  0  0
   27.9407  -17.2876    0.0000 C   0  0  0  0  0  0  0  0  0  0  0  0
   25.5472  -17.2876    0.0000 C   0  0  0  0  0  0  0  0  0  0  0  0
   24.3504  -17.9916    0.0000 O   0  0  0  0  0  0  0  0  0  0  0  0
   25.5472  -15.8797    0.0000 C   0  0  0  0  0  0  0  0  0  0  0  0
   24.3504  -15.1757    0.0000 C   0  0  0  0  0  0  0  0  0  0  0  0
   24.3504  -13.7677    0.0000 C   0  0  0  0  0  0  0  0  0  0  0  0
   23.1537  -13.0637    0.0000 C   0  0  0  0  0  0  0  0  0  0  0  0
   29.1375  -17.9916    0.0000 C   0  0  0  0  0  0  0  0  0  0  0  0
   30.3343  -17.2876    0.0000 O   0  0  0  0  0  0  0  0  0  0  0  0
   29.1375  -19.3995    0.0000 O   0  0  0  0  0  0  0  0  0  0  0  0
   27.9407  -15.8797    0.0000 C   0  0  0  0  0  0  0  0  0  0  0  0
   26.7440  -15.1757    0.0000 C   0  0  0  0  0  0  0  0  0  0  0  0
   29.1375  -15.1757    0.0000 C   0  0  0  0  0  0  0  0  0  0  0  0
  1  2  2  0
  2  3  1  0
  3  4  2  0
  4  5  1  0
  5  6  2  0
  1  6  1  0
  4  7  1  0
  7  8  1  0
  9  8  1  6
  9 10  1  0
  5 10  1  0
  9 11  1  0
  2 12  1  0
 11 13  1  0
 11 14  1  1
 13 15  1  0
 15 16  1  0
 16 17  1  0
 17 18  1  0
 17 19  1  6
 18 20  1  6
 20 21  1  0
 21 22  1  0
 22 23  2  0
 23 24  1  0
 18 24  1  0
 22 25  1  0
 25 26  2  0
 26 27  1  0
 27 28  2  0
 23 28  1  0
 26 29  1  0
 31 32  2  0
 32 33  1  0
 33 34  2  0
 34 35  1  0
 35 36  2  0
 31 36  1  0
 34 37  1  0
 37 38  1  0
 39 38  1  6
 39 40  1  0
 35 40  1  0
 39 41  1  0
 32 42  1  0
 41 43  1  0
 41 44  1  1
 43 45  1  0
 45 46  1  0
 46 47  1  0
 47 48  1  0
 47 49  1  6
 48 50  1  6
 50 51  1  0
 51 52  1  0
 52 53  2  0
 53 54  1  0
 48 54  1  0
 52 55  1  0
 55 56  2  0
 56 57  1  0
 57 58  2  0
 53 58  1  0
 56 59  1  0
 60 61  2  0
 61 62  1  0
 62 63  2  0
 63 64  1  0
 64 65  2  0
 60 65  1  0
 64 66  1  0
 66 67  2  0
 67 68  1  0
 68 69  2  0
 69 70  1  0
 70 71  2  0
 66 71  1  0
 65 72  1  0
 72 73  1  0
 73 74  1  0
 74 75  2  0
 75 76  1  0
 72 76  2  0
 69 77  1  0
 77 78  1  0
 78 79  1  0
 78 80  1  0
 80 81  2  0
 80 82  1  0
 82 83  1  0
 83 84  1  0
 84 85  1  0
 79 86  1  0
 86 87  2  0
 86 88  1  0
 79 89  1  1
 89 90  1  0
 89 91  1  0
M  END
