126961379
     RDKit          2D

241247  0  0  1  0  0  0  0  0999 V2000
   32.4493   17.3253    0.0000 O   0  0  0  0  0  0  0  0  0  0  0  0
   29.7173   14.8253    0.0000 O   0  0  0  0  0  0  0  0  0  0  0  0
   35.1814   14.8253    0.0000 O   0  0  0  0  0  0  0  0  0  0  0  0
   26.9853   17.3253    0.0000 O   0  0  0  0  0  0  0  0  0  0  0  0
   36.4449    7.8253    0.0000 O   0  0  0  0  0  0  0  0  0  0  0  0
   24.2532   14.8253    0.0000 O   0  0  0  0  0  0  0  0  0  0  0  0
   33.7128   10.3253    0.0000 O   0  0  0  0  0  0  0  0  0  0  0  0
   17.5885    9.3253    0.0000 O   0  0  0  0  0  0  0  0  0  0  0  0
   14.1244    8.3253    0.0000 O   0  0  0  0  0  0  0  0  0  0  0  0
   13.2583    7.8253    0.0000 O   0  0  0  0  0  0  0  0  0  0  0  0
   23.3872   19.3253    0.0000 O   0  0  0  0  0  0  0  0  0  0  0  0
   30.9808    7.8253    0.0000 O   0  0  0  0  0  0  0  0  0  0  0  0
   21.5211   14.3253    0.0000 O   0  0  0  0  0  0  0  0  0  0  0  0
   18.4545    9.8253    0.0000 O   0  0  0  0  0  0  0  0  0  0  0  0
   25.1192   19.3253    0.0000 O   0  0  0  0  0  0  0  0  0  0  0  0
   21.5211   17.3253    0.0000 O   0  0  0  0  0  0  0  0  0  0  0  0
   21.9186   10.8253    0.0000 O   0  0  0  0  0  0  0  0  0  0  0  0
    9.7942    6.8253    0.0000 O   0  0  0  0  0  0  0  0  0  0  0  0
   34.5788    5.8253    0.0000 O   0  0  0  0  0  0  0  0  0  0  0  0
   28.2487   10.3253    0.0000 O   0  0  0  0  0  0  0  0  0  0  0  0
   16.7224   13.8253    0.0000 O   0  0  0  0  0  0  0  0  0  0  0  0
   32.8468    5.8253    0.0000 O   0  0  0  0  0  0  0  0  0  0  0  0
   11.5263    3.8253    0.0000 O   0  0  0  0  0  0  0  0  0  0  0  0
   18.7891   17.8253    0.0000 O   0  0  0  0  0  0  0  0  0  0  0  0
   25.5167    7.8253    0.0000 O   0  0  0  0  0  0  0  0  0  0  0  0
   15.8564   12.3253    0.0000 O   0  0  0  0  0  0  0  0  0  0  0  0
   22.7846   10.3253    0.0000 O   0  0  0  0  0  0  0  0  0  0  0  0
    9.7942   12.8253    0.0000 O   0  0  0  0  0  0  0  0  0  0  0  0
   30.1147   12.3253    0.0000 O   0  0  0  0  0  0  0  0  0  0  0  0
   10.6603    3.3253    0.0000 O   0  0  0  0  0  0  0  0  0  0  0  0
   17.9231   16.3253    0.0000 O   0  0  0  0  0  0  0  0  0  0  0  0
   31.8468   12.3253    0.0000 O   0  0  0  0  0  0  0  0  0  0  0  0
   18.7891   14.8253    0.0000 O   0  0  0  0  0  0  0  0  0  0  0  0
   10.6603    2.3253    0.0000 O   0  0  0  0  0  0  0  0  0  0  0  0
    9.7942   -1.1747    0.0000 O   0  0  0  0  0  0  0  0  0  0  0  0
    8.0622   -5.1747    0.0000 O   0  0  0  0  0  0  0  0  0  0  0  0
    4.5981    1.8253    0.0000 O   0  0  0  0  0  0  0  0  0  0  0  0
    6.3301   -1.1747    0.0000 O   0  0  0  0  0  0  0  0  0  0  0  0
   12.3923    0.3253    0.0000 O   0  0  0  0  0  0  0  0  0  0  0  0
    6.3301   -2.1747    0.0000 O   0  0  0  0  0  0  0  0  0  0  0  0
   11.5263    1.8253    0.0000 O   0  0  0  0  0  0  0  0  0  0  0  0
    7.1962   -5.6747    0.0000 O   0  0  0  0  0  0  0  0  0  0  0  0
    5.4641   -9.6747    0.0000 O   0  0  0  0  0  0  0  0  0  0  0  0
    7.1962   -6.6747    0.0000 O   0  0  0  0  0  0  0  0  0  0  0  0
    6.3301  -10.1747    0.0000 O   0  0  0  0  0  0  0  0  0  0  0  0
    9.7942  -11.1747    0.0000 O   0  0  0  0  0  0  0  0  0  0  0  0
    8.9282  -14.6747    0.0000 O   0  0  0  0  0  0  0  0  0  0  0  0
   12.3923  -14.6747    0.0000 O   0  0  0  0  0  0  0  0  0  0  0  0
    6.3301  -14.1747    0.0000 O   0  0  0  0  0  0  0  0  0  0  0  0
   12.3923  -15.6747    0.0000 O   0  0  0  0  0  0  0  0  0  0  0  0
   31.4494   15.8253    0.0000 N   0  0  0  0  0  0  0  0  0  0  0  0
   34.1814   16.3253    0.0000 N   0  0  0  0  0  0  0  0  0  0  0  0
   28.7173   16.3253    0.0000 N   0  0  0  0  0  0  0  0  0  0  0  0
   36.9135   15.8253    0.0000 N   0  0  0  0  0  0  0  0  0  0  0  0
   25.9853   15.8253    0.0000 N   0  0  0  0  0  0  0  0  0  0  0  0
   28.1424   18.1572    0.0000 N   0  0  0  0  0  0  0  0  0  0  0  0
   34.7128    8.8253    0.0000 N   0  0  0  0  0  0  0  0  0  0  0  0
   14.9904    9.8253    0.0000 N   0  0  0  0  0  0  0  0  0  0  0  0
   23.2532   16.3253    0.0000 N   0  0  0  0  0  0  0  0  0  0  0  0
   34.1814   13.3253    0.0000 N   0  0  0  0  0  0  0  0  0  0  0  0
   31.9808    9.3253    0.0000 N   0  0  0  0  0  0  0  0  0  0  0  0
   12.3923    9.3253    0.0000 N   0  0  0  0  0  0  0  0  0  0  0  0
   16.7224   10.8253    0.0000 N   0  0  0  0  0  0  0  0  0  0  0  0
   11.5263    6.8253    0.0000 N   0  0  0  0  0  0  0  0  0  0  0  0
   19.3205   11.3253    0.0000 N   0  0  0  0  0  0  0  0  0  0  0  0
   29.2487    8.8253    0.0000 N   0  0  0  0  0  0  0  0  0  0  0  0
   21.0526    9.3253    0.0000 N   0  0  0  0  0  0  0  0  0  0  0  0
   20.5212   15.8253    0.0000 N   0  0  0  0  0  0  0  0  0  0  0  0
   23.7846    8.8253    0.0000 N   0  0  0  0  0  0  0  0  0  0  0  0
   26.5167    9.3253    0.0000 N   0  0  0  0  0  0  0  0  0  0  0  0
    9.7942    4.8253    0.0000 N   0  0  0  0  0  0  0  0  0  0  0  0
    7.1962    8.3253    0.0000 N   0  0  0  0  0  0  0  0  0  0  0  0
    8.9282    2.3253    0.0000 N   0  0  0  0  0  0  0  0  0  0  0  0
   24.6506   12.3253    0.0000 N   0  0  0  0  0  0  0  0  0  0  0  0
    8.9282    0.3253    0.0000 N   0  0  0  0  0  0  0  0  0  0  0  0
    8.0622   -2.1747    0.0000 N   0  0  0  0  0  0  0  0  0  0  0  0
    6.3301   -4.1747    0.0000 N   0  0  0  0  0  0  0  0  0  0  0  0
    5.4641   -6.6747    0.0000 N   0  0  0  0  0  0  0  0  0  0  0  0
   26.3827   12.3253    0.0000 N   0  0  0  0  0  0  0  0  0  0  0  0
   25.5167   10.8253    0.0000 N   0  0  0  0  0  0  0  0  0  0  0  0
    7.1962   -8.6747    0.0000 N   0  0  0  0  0  0  0  0  0  0  0  0
    8.0622  -11.1747    0.0000 N   0  0  0  0  0  0  0  0  0  0  0  0
    9.7942  -13.1747    0.0000 N   0  0  0  0  0  0  0  0  0  0  0  0
   10.6603  -15.6747    0.0000 N   0  0  0  0  0  0  0  0  0  0  0  0
    7.1962  -15.6747    0.0000 N   0  0  0  0  0  0  0  0  0  0  0  0
   10.6603  -17.6747    0.0000 N   0  0  0  0  0  0  0  0  0  0  0  0
   13.2013  -19.2625    0.0000 N   0  0  0  0  0  0  0  0  0  0  0  0
   11.8923  -20.2135    0.0000 N   0  0  0  0  0  0  0  0  0  0  0  0
   33.3154   15.8253    0.0000 C   0  0  0  0  0  0  0  0  0  0  0  0
   30.5833   16.3253    0.0000 C   0  0  0  0  0  0  0  0  0  0  0  0
   27.8513   15.8253    0.0000 C   0  0  0  0  0  0  0  0  0  0  0  0
   27.8513   14.8253    0.0000 C   0  0  0  0  0  0  0  0  0  0  0  0
   33.3154   14.8253    0.0000 C   0  0  0  0  0  0  0  0  0  0  0  0
   36.0474   16.3253    0.0000 C   0  0  0  0  0  0  0  0  0  0  0  0
   30.5833   17.3253    0.0000 C   0  0  0  0  0  0  0  0  0  0  0  0
   26.9853   14.3253    0.0000 C   0  0  0  0  0  0  0  0  0  0  0  0
   36.0474   17.3253    0.0000 C   0  0  0  0  0  0  0  0  0  0  0  0
   32.4494   16.3253    0.0000 C   0  0  0  0  0  0  0  0  0  0  0  0
   32.4494   14.3253    0.0000 C   0  0  0  0  0  0  0  0  0  0  0  0
   29.7173   15.8253    0.0000 C   0  0  0  0  0  0  0  0  0  0  0  0
   35.1814   15.8253    0.0000 C   0  0  0  0  0  0  0  0  0  0  0  0
   29.7173   17.8253    0.0000 C   0  0  0  0  0  0  0  0  0  0  0  0
   26.9853   16.3253    0.0000 C   0  0  0  0  0  0  0  0  0  0  0  0
   32.4494   13.3253    0.0000 C   0  0  0  0  0  0  0  0  0  0  0  0
   29.6142   18.8141    0.0000 C   0  0  0  0  0  0  0  0  0  0  0  0
   26.9853   13.3253    0.0000 C   0  0  0  0  0  0  0  0  0  0  0  0
   26.1192   14.8253    0.0000 C   0  0  0  0  0  0  0  0  0  0  0  0
   36.9135   17.8253    0.0000 C   0  0  0  0  0  0  0  0  0  0  0  0
   35.1814   17.8253    0.0000 C   0  0  0  0  0  0  0  0  0  0  0  0
   35.5788    9.3253    0.0000 C   0  0  0  0  0  0  0  0  0  0  0  0
   25.1192   16.3253    0.0000 C   0  0  0  0  0  0  0  0  0  0  0  0
   36.4449    8.8253    0.0000 C   0  0  0  0  0  0  0  0  0  0  0  0
   28.8095   17.4202    0.0000 C   0  0  0  0  0  0  0  0  0  0  0  0
   28.6357   19.0203    0.0000 C   0  0  0  0  0  0  0  0  0  0  0  0
   33.3154   12.8253    0.0000 C   0  0  0  0  0  0  0  0  0  0  0  0
   25.1192   17.3253    0.0000 C   0  0  0  0  0  0  0  0  0  0  0  0
   35.5788   10.3253    0.0000 C   0  0  0  0  0  0  0  0  0  0  0  0
   15.8564    9.3253    0.0000 C   0  0  0  0  0  0  0  0  0  0  0  0
   15.8564    8.3253    0.0000 C   0  0  0  0  0  0  0  0  0  0  0  0
   30.2821   19.5584    0.0000 C   0  0  0  0  0  0  0  0  0  0  0  0
   16.7224    7.8253    0.0000 C   0  0  0  0  0  0  0  0  0  0  0  0
   24.2532   15.8253    0.0000 C   0  0  0  0  0  0  0  0  0  0  0  0
   32.8468    8.8253    0.0000 C   0  0  0  0  0  0  0  0  0  0  0  0
   28.3251   19.9708    0.0000 C   0  0  0  0  0  0  0  0  0  0  0  0
   24.2532   17.8253    0.0000 C   0  0  0  0  0  0  0  0  0  0  0  0
   33.7128    9.3253    0.0000 C   0  0  0  0  0  0  0  0  0  0  0  0
   13.2583    9.8253    0.0000 C   0  0  0  0  0  0  0  0  0  0  0  0
   36.4449   10.8253    0.0000 C   0  0  0  0  0  0  0  0  0  0  0  0
   29.9714   20.5089    0.0000 C   0  0  0  0  0  0  0  0  0  0  0  0
   32.8468    7.8253    0.0000 C   0  0  0  0  0  0  0  0  0  0  0  0
   16.7224    9.8253    0.0000 C   0  0  0  0  0  0  0  0  0  0  0  0
   28.9929   20.7151    0.0000 C   0  0  0  0  0  0  0  0  0  0  0  0
   11.5263    7.8253    0.0000 C   0  0  0  0  0  0  0  0  0  0  0  0
   14.1244    9.3253    0.0000 C   0  0  0  0  0  0  0  0  0  0  0  0
   17.5885   11.3253    0.0000 C   0  0  0  0  0  0  0  0  0  0  0  0
   22.3872   15.8253    0.0000 C   0  0  0  0  0  0  0  0  0  0  0  0
   13.2583   10.8253    0.0000 C   0  0  0  0  0  0  0  0  0  0  0  0
   10.6603    8.3253    0.0000 C   0  0  0  0  0  0  0  0  0  0  0  0
   16.7224    6.8253    0.0000 C   0  0  0  0  0  0  0  0  0  0  0  0
   17.5885    8.3253    0.0000 C   0  0  0  0  0  0  0  0  0  0  0  0
   20.1865   10.8253    0.0000 C   0  0  0  0  0  0  0  0  0  0  0  0
   12.3923    8.3253    0.0000 C   0  0  0  0  0  0  0  0  0  0  0  0
   30.1147    9.3253    0.0000 C   0  0  0  0  0  0  0  0  0  0  0  0
    9.7942    7.8253    0.0000 C   0  0  0  0  0  0  0  0  0  0  0  0
   33.7128    7.3253    0.0000 C   0  0  0  0  0  0  0  0  0  0  0  0
   30.9808    8.8253    0.0000 C   0  0  0  0  0  0  0  0  0  0  0  0
   37.3109   10.3253    0.0000 C   0  0  0  0  0  0  0  0  0  0  0  0
   36.4449   11.8253    0.0000 C   0  0  0  0  0  0  0  0  0  0  0  0
   18.4545   10.8253    0.0000 C   0  0  0  0  0  0  0  0  0  0  0  0
   17.5885   12.3253    0.0000 C   0  0  0  0  0  0  0  0  0  0  0  0
   24.2532   18.8253    0.0000 C   0  0  0  0  0  0  0  0  0  0  0  0
   12.3923   11.3253    0.0000 C   0  0  0  0  0  0  0  0  0  0  0  0
   30.1147   10.3253    0.0000 C   0  0  0  0  0  0  0  0  0  0  0  0
    8.9282    8.3253    0.0000 C   0  0  0  0  0  0  0  0  0  0  0  0
   22.3872   14.8253    0.0000 C   0  0  0  0  0  0  0  0  0  0  0  0
   21.5212   16.3253    0.0000 C   0  0  0  0  0  0  0  0  0  0  0  0
   21.0526   10.3253    0.0000 C   0  0  0  0  0  0  0  0  0  0  0  0
   19.6865    9.9593    0.0000 C   0  0  0  0  0  0  0  0  0  0  0  0
   20.6865   11.6914    0.0000 C   0  0  0  0  0  0  0  0  0  0  0  0
   10.6603    6.3253    0.0000 C   0  0  0  0  0  0  0  0  0  0  0  0
   24.6506    9.3253    0.0000 C   0  0  0  0  0  0  0  0  0  0  0  0
   10.6603    5.3253    0.0000 C   0  0  0  0  0  0  0  0  0  0  0  0
   38.1769   10.8253    0.0000 C   0  0  0  0  0  0  0  0  0  0  0  0
   37.3109   12.3253    0.0000 C   0  0  0  0  0  0  0  0  0  0  0  0
   21.9186    8.8253    0.0000 C   0  0  0  0  0  0  0  0  0  0  0  0
   27.3827    8.8253    0.0000 C   0  0  0  0  0  0  0  0  0  0  0  0
   30.9808   10.8253    0.0000 C   0  0  0  0  0  0  0  0  0  0  0  0
    8.0622    7.8253    0.0000 C   0  0  0  0  0  0  0  0  0  0  0  0
   24.6506   10.3253    0.0000 C   0  0  0  0  0  0  0  0  0  0  0  0
   28.2487    9.3253    0.0000 C   0  0  0  0  0  0  0  0  0  0  0  0
   38.1769   11.8253    0.0000 C   0  0  0  0  0  0  0  0  0  0  0  0
   19.6551   16.3253    0.0000 C   0  0  0  0  0  0  0  0  0  0  0  0
   33.7128    6.3253    0.0000 C   0  0  0  0  0  0  0  0  0  0  0  0
   11.5263   10.8253    0.0000 C   0  0  0  0  0  0  0  0  0  0  0  0
   12.3923   12.3253    0.0000 C   0  0  0  0  0  0  0  0  0  0  0  0
   25.5167    8.8253    0.0000 C   0  0  0  0  0  0  0  0  0  0  0  0
   16.7224   12.8253    0.0000 C   0  0  0  0  0  0  0  0  0  0  0  0
   22.7846    9.3253    0.0000 C   0  0  0  0  0  0  0  0  0  0  0  0
   23.7846   10.8253    0.0000 C   0  0  0  0  0  0  0  0  0  0  0  0
   11.5263    4.8253    0.0000 C   0  0  0  0  0  0  0  0  0  0  0  0
   19.6551   17.3253    0.0000 C   0  0  0  0  0  0  0  0  0  0  0  0
    8.9282    3.3253    0.0000 C   0  0  0  0  0  0  0  0  0  0  0  0
   21.9186    7.8253    0.0000 C   0  0  0  0  0  0  0  0  0  0  0  0
   27.3827    7.8253    0.0000 C   0  0  0  0  0  0  0  0  0  0  0  0
   10.6603   11.3253    0.0000 C   0  0  0  0  0  0  0  0  0  0  0  0
   11.5263   12.8253    0.0000 C   0  0  0  0  0  0  0  0  0  0  0  0
    9.7942    3.8253    0.0000 C   0  0  0  0  0  0  0  0  0  0  0  0
   23.7846   11.8253    0.0000 C   0  0  0  0  0  0  0  0  0  0  0  0
   10.6603   12.3253    0.0000 C   0  0  0  0  0  0  0  0  0  0  0  0
   30.9808   11.8253    0.0000 C   0  0  0  0  0  0  0  0  0  0  0  0
    8.0622    3.8253    0.0000 C   0  0  0  0  0  0  0  0  0  0  0  0
   18.7891   15.8253    0.0000 C   0  0  0  0  0  0  0  0  0  0  0  0
   20.5212   17.8253    0.0000 C   0  0  0  0  0  0  0  0  0  0  0  0
    7.1962    3.3253    0.0000 C   0  0  0  0  0  0  0  0  0  0  0  0
    9.7942    0.8253    0.0000 C   0  0  0  0  0  0  0  0  0  0  0  0
    9.7942    1.8253    0.0000 C   0  0  0  0  0  0  0  0  0  0  0  0
   10.6603    0.3253    0.0000 C   0  0  0  0  0  0  0  0  0  0  0  0
    7.1962    2.3253    0.0000 C   0  0  0  0  0  0  0  0  0  0  0  0
    6.3301    3.8253    0.0000 C   0  0  0  0  0  0  0  0  0  0  0  0
    8.0622   -1.1747    0.0000 C   0  0  0  0  0  0  0  0  0  0  0  0
    8.9282   -0.6747    0.0000 C   0  0  0  0  0  0  0  0  0  0  0  0
   25.5167   11.8253    0.0000 C   0  0  0  0  0  0  0  0  0  0  0  0
    7.1962   -3.6747    0.0000 C   0  0  0  0  0  0  0  0  0  0  0  0
    6.3301    1.8253    0.0000 C   0  0  0  0  0  0  0  0  0  0  0  0
    5.4641    3.3253    0.0000 C   0  0  0  0  0  0  0  0  0  0  0  0
    5.4641   -5.6747    0.0000 C   0  0  0  0  0  0  0  0  0  0  0  0
    8.0622   -4.1747    0.0000 C   0  0  0  0  0  0  0  0  0  0  0  0
    7.1962   -2.6747    0.0000 C   0  0  0  0  0  0  0  0  0  0  0  0
    5.4641    2.3253    0.0000 C   0  0  0  0  0  0  0  0  0  0  0  0
    7.1962   -0.6747    0.0000 C   0  0  0  0  0  0  0  0  0  0  0  0
   11.5263    0.8253    0.0000 C   0  0  0  0  0  0  0  0  0  0  0  0
    6.3301   -5.1747    0.0000 C   0  0  0  0  0  0  0  0  0  0  0  0
    4.5981   -5.1747    0.0000 C   0  0  0  0  0  0  0  0  0  0  0  0
    6.3301   -8.1747    0.0000 C   0  0  0  0  0  0  0  0  0  0  0  0
    8.9282   -3.6747    0.0000 C   0  0  0  0  0  0  0  0  0  0  0  0
    6.3301   -7.1747    0.0000 C   0  0  0  0  0  0  0  0  0  0  0  0
    3.7320   -5.6747    0.0000 C   0  0  0  0  0  0  0  0  0  0  0  0
    5.4641   -8.6747    0.0000 C   0  0  0  0  0  0  0  0  0  0  0  0
    4.5981   -8.1747    0.0000 C   0  0  0  0  0  0  0  0  0  0  0  0
    2.8660   -5.1747    0.0000 C   0  0  0  0  0  0  0  0  0  0  0  0
    3.7320   -6.6747    0.0000 C   0  0  0  0  0  0  0  0  0  0  0  0
    7.1962   -9.6747    0.0000 C   0  0  0  0  0  0  0  0  0  0  0  0
    2.0000   -5.6747    0.0000 C   0  0  0  0  0  0  0  0  0  0  0  0
    2.8660   -7.1747    0.0000 C   0  0  0  0  0  0  0  0  0  0  0  0
    8.0622  -10.1747    0.0000 C   0  0  0  0  0  0  0  0  0  0  0  0
    8.9282  -12.6747    0.0000 C   0  0  0  0  0  0  0  0  0  0  0  0
    2.0000   -6.6747    0.0000 C   0  0  0  0  0  0  0  0  0  0  0  0
    8.0622  -13.1747    0.0000 C   0  0  0  0  0  0  0  0  0  0  0  0
    8.9282  -11.6747    0.0000 C   0  0  0  0  0  0  0  0  0  0  0  0
    8.0622  -14.1747    0.0000 C   0  0  0  0  0  0  0  0  0  0  0  0
   10.6603  -14.6747    0.0000 C   0  0  0  0  0  0  0  0  0  0  0  0
    9.7942  -14.1747    0.0000 C   0  0  0  0  0  0  0  0  0  0  0  0
   11.5263  -14.1747    0.0000 C   0  0  0  0  0  0  0  0  0  0  0  0
    7.1962  -14.6747    0.0000 C   0  0  0  0  0  0  0  0  0  0  0  0
   11.5263  -17.1747    0.0000 C   0  0  0  0  0  0  0  0  0  0  0  0
   11.5263  -16.1747    0.0000 C   0  0  0  0  0  0  0  0  0  0  0  0
   12.3923  -17.6747    0.0000 C   0  0  0  0  0  0  0  0  0  0  0  0
   12.3923  -18.6747    0.0000 C   0  0  0  0  0  0  0  0  0  0  0  0
   11.5833  -19.2625    0.0000 C   0  0  0  0  0  0  0  0  0  0  0  0
   12.8923  -20.2135    0.0000 C   0  0  0  0  0  0  0  0  0  0  0  0
   26.0536   10.5153    0.0000 H   0  0  0  0  0  0  0  0  0  0  0  0
  1 98  2  0
  2100  2  0
  3101  2  0
  4103  2  0
  5112  2  0
  6122  2  0
  7126  2  0
  8131  2  0
  9134  2  0
 10142  2  0
 11151  1  0
 12146  2  0
 13155  1  0
 14149  2  0
 15151  2  0
 16156  2  0
 17157  2  0
 18160  2  0
 19173  1  0
 20170  2  0
 21177  1  0
 22173  2  0
 23180  1  0
181 24  1  0
 25176  2  0
 26177  2  0
 27178  2  0
 28189  1  0
 29190  1  0
 30187  2  0
 31192  1  0
 32190  2  0
 33192  2  0
 34196  2  0
 35201  2  0
207 36  1  0
 37209  1  0
 38210  1  0
 39211  1  0
 40208  2  0
 41211  2  0
 42212  2  0
218 43  1  0
 44216  2  0
 45222  2  0
 46229  2  0
 47232  2  0
 48233  1  0
 49234  2  0
 50236  2  0
 90 51  1  0
 51 98  1  0
 89 52  1  0
 52101  1  0
 91 53  1  0
 53100  1  0
 94 54  1  6
 54112  1  0
 55103  1  0
111 55  1  0
 56113  1  0
 56114  1  0
110 57  1  0
 57126  1  0
118 58  1  0
 58134  1  0
 59122  1  0
136 59  1  0
 60115  1  0
123 61  1  0
 61146  1  0
127 62  1  0
 62142  1  0
 63131  1  0
135 63  1  0
133 64  1  0
 64160  1  0
 65141  1  0
 65149  1  0
143 66  1  0
 66170  1  0
 67157  1  0
165 67  1  0
 68156  1  0
172 68  1  6
161 69  1  0
 69178  1  0
166 70  1  0
 70176  1  0
162 71  1  0
 71187  1  0
 72168  1  0
182 73  1  0
 73196  1  0
 74188  1  0
 74202  1  0
195 75  1  0
 75201  1  0
200 76  1  0
 76208  1  0
203 77  1  6
 77212  1  0
206 78  1  0
 78216  1  0
 79202  1  0
 80202  2  0
 80241  1  0
214 81  1  1
 81222  1  0
 82225  1  0
 82229  1  0
226 83  1  0
 83232  1  0
231 84  1  0
 84236  1  0
 85234  1  0
235 86  1  6
 87238  1  0
 87240  2  0
 88239  1  0
 88240  1  0
 89 93  1  1
 89 98  1  0
 90 95  1  6
 90100  1  0
 91 92  1  1
 91103  1  0
 92 96  1  0
 93 99  1  0
 94 97  1  0
 94101  1  0
 95102  1  0
 96106  1  0
 96107  1  0
 97108  1  0
 97109  1  0
 99104  1  0
102105  1  0
102113  2  0
104115  1  0
105114  2  0
105120  1  0
110112  1  0
110117  1  1
111116  1  6
111122  1  0
114124  1  0
116125  1  0
117128  1  0
118119  1  6
118131  1  0
119121  1  0
120129  2  0
121139  1  0
121140  1  0
123126  1  0
123130  1  6
124132  2  0
125151  1  0
127134  1  0
127137  1  1
128147  2  0
128148  1  0
129132  1  0
130145  1  0
133138  1  1
133142  1  0
135149  1  0
135150  1  1
136155  1  1
136156  1  0
137152  1  0
138144  1  0
141157  1  0
141158  1  0
141159  1  0
143146  1  0
143153  1  1
144154  1  0
145173  1  0
147163  1  0
148164  2  0
150177  1  0
152174  2  0
152175  1  0
153167  1  0
154168  1  0
160162  1  0
161169  1  1
161176  1  0
162180  1  6
163171  2  0
164171  1  0
165178  1  0
165183  1  6
166170  1  0
166184  1  6
167190  1  0
169179  1  0
172181  1  0
172192  1  0
174185  1  0
175186  2  0
179188  1  0
181193  1  6
182187  1  0
182191  1  1
185189  2  0
186189  1  0
191194  1  0
194198  2  0
194199  1  0
195196  1  0
195197  1  6
197211  1  0
198204  1  0
199205  2  0
200201  1  0
200210  1  1
203207  1  0
203208  1  0
204209  2  0
205209  1  0
206212  1  0
206213  1  1
207215  1  1
213217  1  0
214216  1  0
214218  1  0
217220  2  0
217221  1  0
218219  1  6
220223  1  0
221224  2  0
222225  1  0
223227  2  0
224227  1  0
226228  1  1
226229  1  0
228230  1  0
230234  1  0
231232  1  0
231233  1  6
235236  1  0
235237  1  0
237238  1  0
238239  2  0
M  END
