 
     RDKit          2D

256271  0  0  1  0  0  0  0  0999 V2000
   33.7636  -15.0281    0.0000 C   0  0  0  0  0  0  0  0  0  0  0  0
   25.3035  -15.6573    0.0000 N   0  0  0  0  0  0  0  0  0  0  0  0
   26.4921  -14.9581    0.0000 C   0  0  0  0  0  0  0  0  0  0  0  0
   24.1149  -14.9581    0.0000 S   0  0  0  0  0  0  0  0  0  0  0  0
   27.7506  -15.6573    0.0000 C   0  0  0  0  0  0  0  0  0  0  0  0
   22.8564  -15.6573    0.0000 C   0  0  0  0  0  0  0  0  0  0  0  0
   28.9392  -14.9581    0.0000 C   0  0  0  0  0  0  0  0  0  0  0  0
   28.9392  -13.5598    0.0000 C   0  0  0  0  0  0  0  0  0  0  0  0
   30.1278  -15.6573    0.0000 N   0  0  0  0  0  0  0  0  0  0  0  0
   27.7506  -12.8606    0.0000 C   0  0  0  0  0  0  0  0  0  0  0  0
   31.3164  -14.9581    0.0000 C   0  0  0  0  0  0  0  0  0  0  0  0
   26.4921  -13.5598    0.0000 C   0  0  0  0  0  0  0  0  0  0  0  0
   27.7506  -11.4622    0.0000 C   0  0  0  0  0  0  0  0  0  0  0  0
   32.5750  -15.6573    0.0000 O   0  0  0  0  0  0  0  0  0  0  0  0
   31.3164  -13.5598    0.0000 O   0  0  0  0  0  0  0  0  0  0  0  0
   25.3035  -12.8606    0.0000 C   0  0  0  0  0  0  0  0  0  0  0  0
   26.4921  -10.7631    0.0000 C   0  0  0  0  0  0  0  0  0  0  0  0
   25.3035  -11.4622    0.0000 C   0  0  0  0  0  0  0  0  0  0  0  0
   22.8564  -17.0557    0.0000 C   0  0  0  0  0  0  0  0  0  0  0  0
   21.6678  -17.7549    0.0000 C   0  0  0  0  0  0  0  0  0  0  0  0
   20.4792  -17.0557    0.0000 C   0  0  0  0  0  0  0  0  0  0  0  0
   20.4792  -15.6573    0.0000 C   0  0  0  0  0  0  0  0  0  0  0  0
   21.6678  -14.9581    0.0000 C   0  0  0  0  0  0  0  0  0  0  0  0
   25.3035  -18.1057    0.0000 C   0  0  0  0  0  0  0  0  0  0  0  0
   27.6807  -17.0557    0.0000 O   0  0  0  0  0  0  0  0  0  0  0  0
   25.0938  -13.9793    0.0000 O   0  0  0  0  0  0  0  0  0  0  0  0
   23.1361  -13.9793    0.0000 O   0  0  0  0  0  0  0  0  0  0  0  0
   35.1016  -15.4482    0.0000 C   0  0  0  0  0  0  0  0  0  0  0  0
   35.9144  -14.3276    0.0000 C   0  0  0  0  0  0  0  0  0  0  0  0
   35.0951  -13.1837    0.0000 O   0  0  0  0  0  0  0  0  0  0  0  0
   33.7471  -13.6107    0.0000 C   0  0  0  0  0  0  0  0  0  0  0  0
   35.9900  -16.5811    0.0000 C   0  0  0  0  0  0  0  0  0  0  0  0
   37.2570  -16.0851    0.0000 C   0  0  0  0  0  0  0  0  0  0  0  0
   37.2562  -14.7512    0.0000 O   0  0  0  0  0  0  0  0  0  0  0  0
   19.2207  -17.7549    0.0000 N   0  0  0  0  0  0  0  0  0  0  0  0
   26.5170  -18.7664    0.0000 C   0  0  0  0  0  0  0  0  0  0  0  0
   26.5170  -20.1664    0.0000 C   0  0  0  0  0  0  0  0  0  0  0  0
   27.7330  -18.0439    0.0000 C   0  0  0  0  0  0  0  0  0  0  0  0
   29.0717  -19.5380    0.0000 C   0  0  0  0  0  0  0  0  0  0  0  0
   20.7524  -20.1567    0.0000 N   0  0  0  0  0  0  0  0  0  0  0  0
   21.9212  -19.4692    0.0000 C   0  0  0  0  0  0  0  0  0  0  0  0
   19.5836  -19.4692    0.0000 S   0  0  0  0  0  0  0  0  0  0  0  0
   23.1588  -20.1567    0.0000 C   0  0  0  0  0  0  0  0  0  0  0  0
   18.3460  -20.1567    0.0000 C   0  0  0  0  0  0  0  0  0  0  0  0
   24.3276  -19.4692    0.0000 C   0  0  0  0  0  0  0  0  0  0  0  0
   24.3276  -18.0941    0.0000 C   0  0  0  0  0  0  0  0  0  0  0  0
   25.4964  -20.1567    0.0000 N   0  0  0  0  0  0  0  0  0  0  0  0
   23.1588  -17.4066    0.0000 C   0  0  0  0  0  0  0  0  0  0  0  0
   26.6652  -19.4692    0.0000 C   0  0  0  0  0  0  0  0  0  0  0  0
   21.9212  -18.0941    0.0000 C   0  0  0  0  0  0  0  0  0  0  0  0
   23.1588  -16.0315    0.0000 C   0  0  0  0  0  0  0  0  0  0  0  0
   27.9029  -20.1567    0.0000 O   0  0  0  0  0  0  0  0  0  0  0  0
   26.6652  -18.0941    0.0000 O   0  0  0  0  0  0  0  0  0  0  0  0
   20.7524  -17.4066    0.0000 C   0  0  0  0  0  0  0  0  0  0  0  0
   21.9212  -15.3440    0.0000 C   0  0  0  0  0  0  0  0  0  0  0  0
   20.7524  -16.0315    0.0000 C   0  0  0  0  0  0  0  0  0  0  0  0
   18.3460  -21.5319    0.0000 C   0  0  0  0  0  0  0  0  0  0  0  0
   17.1772  -22.2194    0.0000 C   0  0  0  0  0  0  0  0  0  0  0  0
   16.0084  -21.5319    0.0000 C   0  0  0  0  0  0  0  0  0  0  0  0
   16.0084  -20.1567    0.0000 C   0  0  0  0  0  0  0  0  0  0  0  0
   17.1772  -19.4692    0.0000 C   0  0  0  0  0  0  0  0  0  0  0  0
   20.7524  -22.5644    0.0000 C   0  0  0  0  0  0  0  0  0  0  0  0
   23.0901  -21.5319    0.0000 O   0  0  0  0  0  0  0  0  0  0  0  0
   20.5462  -18.5067    0.0000 O   0  0  0  0  0  0  0  0  0  0  0  0
   18.6211  -18.5067    0.0000 O   0  0  0  0  0  0  0  0  0  0  0  0
   30.3875  -19.9511    0.0000 C   0  0  0  0  0  0  0  0  0  0  0  0
   31.1867  -18.8492    0.0000 C   0  0  0  0  0  0  0  0  0  0  0  0
   30.3811  -17.7243    0.0000 O   0  0  0  0  0  0  0  0  0  0  0  0
   29.0555  -18.1442    0.0000 C   0  0  0  0  0  0  0  0  0  0  0  0
   31.2611  -21.0652    0.0000 C   0  0  0  0  0  0  0  0  0  0  0  0
   32.5070  -20.5774    0.0000 C   0  0  0  0  0  0  0  0  0  0  0  0
   32.5062  -19.2657    0.0000 O   0  0  0  0  0  0  0  0  0  0  0  0
   14.7708  -22.2194    0.0000 N   0  0  0  0  0  0  0  0  0  0  0  0
   21.9457  -23.2141    0.0000 C   0  0  0  0  0  0  0  0  0  0  0  0
   21.9457  -24.5908    0.0000 C   0  0  0  0  0  0  0  0  0  0  0  0
   23.1415  -22.5036    0.0000 C   0  0  0  0  0  0  0  0  0  0  0  0
   31.9200  -24.4300    0.0000 C   0  0  0  0  0  0  0  0  0  0  0  0
   33.1324  -25.1300    0.0000 O   0  0  0  0  0  0  0  0  0  0  0  0
   30.7076  -25.1300    0.0000 C   0  0  0  0  0  0  0  0  0  0  0  0
   26.1100  -20.1600    0.0000 C   0  0  0  0  0  0  0  0  0  0  0  0
   26.1100  -21.5600    0.0000 C   0  0  0  0  0  0  0  0  0  0  0  0
   27.3000  -19.4600    0.0000 C   0  0  0  0  0  0  0  0  0  0  0  0
   24.9200  -19.4600    0.0000 N   0  0  0  0  0  0  0  0  0  0  0  0
   28.5600  -20.1600    0.0000 C   0  0  0  0  0  0  0  0  0  0  0  0
   23.7300  -20.1600    0.0000 C   0  0  0  0  0  0  0  0  0  0  0  0
   29.7500  -19.4600    0.0000 C   0  0  0  0  0  0  0  0  0  0  0  0
   22.4700  -19.4600    0.0000 C   0  0  0  0  0  0  0  0  0  0  0  0
   23.7300  -21.5600    0.0000 O   0  0  0  0  0  0  0  0  0  0  0  0
   29.7500  -18.0600    0.0000 C   0  0  0  0  0  0  0  0  0  0  0  0
   30.9400  -20.0900    0.0000 N   0  0  0  0  0  0  0  0  0  0  0  0
   21.2800  -20.1600    0.0000 N   0  0  0  0  0  0  0  0  0  0  0  0
   28.4900  -17.3600    0.0000 C   0  0  0  0  0  0  0  0  0  0  0  0
   32.1300  -19.4600    0.0000 C   0  0  0  0  0  0  0  0  0  0  0  0
   20.0900  -19.4600    0.0000 C   0  0  0  0  0  0  0  0  0  0  0  0
   28.4900  -15.9600    0.0000 C   0  0  0  0  0  0  0  0  0  0  0  0
   27.3000  -18.0600    0.0000 C   0  0  0  0  0  0  0  0  0  0  0  0
   33.3900  -20.0900    0.0000 O   0  0  0  0  0  0  0  0  0  0  0  0
   32.1300  -18.0600    0.0000 O   0  0  0  0  0  0  0  0  0  0  0  0
   18.9000  -20.1600    0.0000 N   0  0  0  0  0  0  0  0  0  0  0  0
   20.0900  -18.0600    0.0000 O   0  0  0  0  0  0  0  0  0  0  0  0
   27.3000  -15.2600    0.0000 C   0  0  0  0  0  0  0  0  0  0  0  0
   26.1100  -17.3600    0.0000 C   0  0  0  0  0  0  0  0  0  0  0  0
   34.5800  -19.3900    0.0000 C   0  0  0  0  0  0  0  0  0  0  0  0
   17.6400  -19.4600    0.0000 C   0  0  0  0  0  0  0  0  0  0  0  0
   18.9000  -21.5600    0.0000 C   0  0  0  0  0  0  0  0  0  0  0  0
   26.1100  -15.9600    0.0000 C   0  0  0  0  0  0  0  0  0  0  0  0
   35.7700  -20.0900    0.0000 C   0  0  0  0  0  0  0  0  0  0  0  0
   16.4500  -20.1600    0.0000 C   0  0  0  0  0  0  0  0  0  0  0  0
   35.7700  -21.4900    0.0000 C   0  0  0  0  0  0  0  0  0  0  0  0
   37.1000  -19.6700    0.0000 S   0  0  0  0  0  0  0  0  0  0  0  0
   15.1200  -19.8100    0.0000 N   0  0  0  0  0  0  0  0  0  0  0  0
   16.4500  -21.5600    0.0000 C   0  0  0  0  0  0  0  0  0  0  0  0
   37.1000  -21.9100    0.0000 N   0  0  0  0  0  0  0  0  0  0  0  0
   37.9400  -20.7900    0.0000 C   0  0  0  0  0  0  0  0  0  0  0  0
   14.3500  -21.0000    0.0000 C   0  0  0  0  0  0  0  0  0  0  0  0
   15.1900  -22.0500    0.0000 S   0  0  0  0  0  0  0  0  0  0  0  0
   12.9500  -21.0000    0.0000 C   0  0  0  0  0  0  0  0  0  0  0  0
   12.1800  -19.8100    0.0000 C   0  0  0  0  0  0  0  0  0  0  0  0
   12.3200  -22.1900    0.0000 C   0  0  0  0  0  0  0  0  0  0  0  0
   27.3224  -22.2600    0.0000 C   0  0  0  0  0  0  0  0  0  0  0  0
   27.3224  -23.6598    0.0000 C   0  0  0  0  0  0  0  0  0  0  0  0
   28.5349  -24.3598    0.0000 C   0  0  0  0  0  0  0  0  0  0  0  0
   29.7473  -23.6598    0.0000 C   0  0  0  0  0  0  0  0  0  0  0  0
   29.7473  -22.2600    0.0000 C   0  0  0  0  0  0  0  0  0  0  0  0
   28.5349  -21.5600    0.0000 C   0  0  0  0  0  0  0  0  0  0  0  0
   22.4528  -18.0601    0.0000 C   0  0  0  0  0  0  0  0  0  0  0  0
   21.2449  -17.3824    0.0000 C   0  0  0  0  0  0  0  0  0  0  0  0
   21.2449  -15.9824    0.0000 N   0  0  0  0  0  0  0  0  0  0  0  0
   22.4402  -15.2917    0.0000 C   0  0  0  0  0  0  0  0  0  0  0  0
   22.4397  -13.8917    0.0000 C   0  0  0  0  0  0  0  0  0  0  0  0
   21.2270  -13.1922    0.0000 O   0  0  0  0  0  0  0  0  0  0  0  0
   20.0317  -13.8828    0.0000 C   0  0  0  0  0  0  0  0  0  0  0  0
   20.0322  -15.2828    0.0000 C   0  0  0  0  0  0  0  0  0  0  0  0
   25.0103  -17.6390    0.0000 N   0  0  0  0  0  0  0  0  0  0  0  0
   23.6350  -18.1111    0.0000 C   0  0  0  0  0  0  0  0  0  0  0  0
   21.3970  -18.1111    0.0000 C   0  0  0  0  0  0  0  0  0  0  0  0
   20.1381  -17.4117    0.0000 C   0  0  0  0  0  0  0  0  0  0  0  0
   18.9492  -18.1111    0.0000 O   0  0  0  0  0  0  0  0  0  0  0  0
   21.8166  -19.4399    0.0000 S   0  0  0  0  0  0  0  0  0  0  0  0
   22.5160  -17.2718    0.0000 O   0  0  0  0  0  0  0  0  0  0  0  0
   23.2154  -19.4399    0.0000 C   0  0  0  0  0  0  0  0  0  0  0  0
   25.0206  -16.2402    0.0000 C   0  0  0  0  0  0  0  0  0  0  0  0
   26.2146  -15.5496    0.0000 C   0  0  0  0  0  0  0  0  0  0  0  0
   27.4684  -16.2582    0.0000 C   0  0  0  0  0  0  0  0  0  0  0  0
   27.4581  -17.6570    0.0000 N   0  0  0  0  0  0  0  0  0  0  0  0
   26.2641  -18.3476    0.0000 C   0  0  0  0  0  0  0  0  0  0  0  0
   28.6624  -15.5676    0.0000 N   0  0  0  0  0  0  0  0  0  0  0  0
   26.1549  -14.1509    0.0000 F   0  0  0  0  0  0  0  0  0  0  0  0
   26.2538  -19.7463    0.0000 O   0  0  0  0  0  0  0  0  0  0  0  0
   22.5400  -22.2600    0.0000 N   0  0  0  0  0  0  0  0  0  0  0  0
   22.5400  -23.7300    0.0000 C   0  0  0  0  0  0  0  0  0  0  0  0
   21.3500  -24.4300    0.0000 N   0  0  0  0  0  0  0  0  0  0  0  0
   20.0900  -23.7300    0.0000 C   0  0  0  0  0  0  0  0  0  0  0  0
   20.0900  -22.2600    0.0000 C   0  0  0  0  0  0  0  0  0  0  0  0
   21.3500  -21.5600    0.0000 C   0  0  0  0  0  0  0  0  0  0  0  0
   18.7600  -24.1500    0.0000 N   0  0  0  0  0  0  0  0  0  0  0  0
   17.9900  -23.0300    0.0000 C   0  0  0  0  0  0  0  0  0  0  0  0
   18.7600  -21.8400    0.0000 N   0  0  0  0  0  0  0  0  0  0  0  0
   21.3500  -20.1600    0.0000 N   0  0  0  0  0  0  0  0  0  0  0  0
   18.7600  -25.5500    0.0000 C   0  0  0  0  0  0  0  0  0  0  0  0
   17.5700  -26.2500    0.0000 C   0  0  0  0  0  0  0  0  0  0  0  0
   16.3100  -25.5500    0.0000 O   0  0  0  0  0  0  0  0  0  0  0  0
   15.2600  -26.2500    0.0000 C   0  0  0  0  0  0  0  0  0  0  0  0
   14.0000  -25.5500    0.0000 P   0  0  0  0  0  0  0  0  0  0  0  0
   17.5700  -27.5800    0.0000 C   0  0  0  0  0  0  0  0  0  0  0  0
   12.7400  -24.8500    0.0000 O   0  0  0  0  0  0  0  0  0  0  0  0
   14.7000  -24.2900    0.0000 O   0  0  0  0  0  0  0  0  0  0  0  0
   12.8800  -26.7400    0.0000 N   0  0  0  0  0  0  0  0  0  0  0  0
   11.3400  -24.8500    0.0000 C   0  0  0  0  0  0  0  0  0  0  0  0
   10.6400  -23.6376    0.0000 C   0  0  0  0  0  0  0  0  0  0  0  0
    9.2400  -23.6376    0.0000 C   0  0  0  0  0  0  0  0  0  0  0  0
    8.5400  -24.8500    0.0000 C   0  0  0  0  0  0  0  0  0  0  0  0
    9.2400  -26.0624    0.0000 C   0  0  0  0  0  0  0  0  0  0  0  0
   10.6400  -26.0624    0.0000 C   0  0  0  0  0  0  0  0  0  0  0  0
   12.8800  -28.1400    0.0000 C   0  0  0  0  0  0  0  0  0  0  0  0
   11.6676  -28.8400    0.0000 C   0  0  0  0  0  0  0  0  0  0  0  0
   14.0924  -28.8400    0.0000 C   0  0  0  0  0  0  0  0  0  0  0  0
   10.4721  -28.1496    0.0000 O   0  0  0  0  0  0  0  0  0  0  0  0
   11.6675  -30.2398    0.0000 O   0  0  0  0  0  0  0  0  0  0  0  0
    9.2847  -28.8351    0.0000 C   0  0  0  0  0  0  0  0  0  0  0  0
    8.0935  -28.1471    0.0000 C   0  0  0  0  0  0  0  0  0  0  0  0
    9.2845  -30.2398    0.0000 C   0  0  0  0  0  0  0  0  0  0  0  0
   28.2100  -13.7900    0.0000 N   0  0  0  0  0  0  0  0  0  0  0  0
   28.2100  -15.2600    0.0000 C   0  0  0  0  0  0  0  0  0  0  0  0
   27.0200  -15.9600    0.0000 N   0  0  0  0  0  0  0  0  0  0  0  0
   25.8300  -15.2600    0.0000 C   0  0  0  0  0  0  0  0  0  0  0  0
   25.8300  -13.7900    0.0000 C   0  0  0  0  0  0  0  0  0  0  0  0
   27.0200  -13.0900    0.0000 C   0  0  0  0  0  0  0  0  0  0  0  0
   24.5000  -15.6800    0.0000 N   0  0  0  0  0  0  0  0  0  0  0  0
   23.7300  -14.5600    0.0000 C   0  0  0  0  0  0  0  0  0  0  0  0
   24.5000  -13.3700    0.0000 N   0  0  0  0  0  0  0  0  0  0  0  0
   27.0200  -11.7600    0.0000 N   0  0  0  0  0  0  0  0  0  0  0  0
   24.5000  -17.0800    0.0000 C   0  0  0  0  0  0  0  0  0  0  0  0
   23.3100  -17.7800    0.0000 C   0  0  0  0  0  0  0  0  0  0  0  0
   22.0500  -17.0800    0.0000 O   0  0  0  0  0  0  0  0  0  0  0  0
   21.0000  -17.7800    0.0000 C   0  0  0  0  0  0  0  0  0  0  0  0
   19.7400  -17.0800    0.0000 P   0  0  0  0  0  0  0  0  0  0  0  0
   23.3100  -19.1100    0.0000 C   0  0  0  0  0  0  0  0  0  0  0  0
   18.4800  -16.3800    0.0000 O   0  0  0  0  0  0  0  0  0  0  0  0
   20.4400  -15.8200    0.0000 O   0  0  0  0  0  0  0  0  0  0  0  0
   18.6200  -18.2700    0.0000 N   0  0  0  0  0  0  0  0  0  0  0  0
   17.0800  -16.3800    0.0000 C   0  0  0  0  0  0  0  0  0  0  0  0
   16.3800  -15.1900    0.0000 C   0  0  0  0  0  0  0  0  0  0  0  0
   14.9800  -15.1900    0.0000 C   0  0  0  0  0  0  0  0  0  0  0  0
   14.2800  -16.3800    0.0000 C   0  0  0  0  0  0  0  0  0  0  0  0
   14.9800  -17.5700    0.0000 C   0  0  0  0  0  0  0  0  0  0  0  0
   16.3800  -17.5700    0.0000 C   0  0  0  0  0  0  0  0  0  0  0  0
   18.6200  -19.6700    0.0000 C   0  0  0  0  0  0  0  0  0  0  0  0
   17.4300  -20.3700    0.0000 C   0  0  0  0  0  0  0  0  0  0  0  0
   19.8100  -20.3700    0.0000 C   0  0  0  0  0  0  0  0  0  0  0  0
   16.2400  -19.6700    0.0000 O   0  0  0  0  0  0  0  0  0  0  0  0
   17.4300  -21.7700    0.0000 O   0  0  0  0  0  0  0  0  0  0  0  0
   15.0500  -20.3700    0.0000 C   0  0  0  0  0  0  0  0  0  0  0  0
   13.8600  -19.6700    0.0000 C   0  0  0  0  0  0  0  0  0  0  0  0
   15.0500  -21.7700    0.0000 C   0  0  0  0  0  0  0  0  0  0  0  0
   34.5800  -17.5000    0.0000 C   0  0  0  0  0  0  0  0  0  0  0  0
   35.7924  -18.2000    0.0000 C   0  0  0  0  0  0  0  0  0  0  0  0
   33.3676  -18.2000    0.0000 O   0  0  0  0  0  0  0  0  0  0  0  0
   34.5800  -16.1000    0.0000 O   0  0  0  0  0  0  0  0  0  0  0  0
   36.9879  -17.5096    0.0000 C   0  0  0  0  0  0  0  0  0  0  0  0
   38.1753  -18.1951    0.0000 C   0  0  0  0  0  0  0  0  0  0  0  0
   39.3665  -17.5071    0.0000 O   0  0  0  0  0  0  0  0  0  0  0  0
   38.1755  -19.5998    0.0000 O   0  0  0  0  0  0  0  0  0  0  0  0
   28.2100  -13.7900    0.0000 N   0  0  0  0  0  0  0  0  0  0  0  0
   28.2100  -15.2600    0.0000 C   0  0  0  0  0  0  0  0  0  0  0  0
   27.0200  -15.9600    0.0000 N   0  0  0  0  0  0  0  0  0  0  0  0
   25.8300  -15.2600    0.0000 C   0  0  0  0  0  0  0  0  0  0  0  0
   25.8300  -13.7900    0.0000 C   0  0  0  0  0  0  0  0  0  0  0  0
   27.0200  -13.0900    0.0000 C   0  0  0  0  0  0  0  0  0  0  0  0
   27.0200  -11.7600    0.0000 N   0  0  0  0  0  0  0  0  0  0  0  0
   24.5000  -13.3700    0.0000 N   0  0  0  0  0  0  0  0  0  0  0  0
   23.7300  -14.5600    0.0000 C   0  0  0  0  0  0  0  0  0  0  0  0
   24.5000  -15.6800    0.0000 N   0  0  0  0  0  0  0  0  0  0  0  0
   24.5000  -17.0800    0.0000 C   0  0  0  0  0  0  0  0  0  0  0  0
   23.3100  -17.7800    0.0000 C   0  0  0  0  0  0  0  0  0  0  0  0
   22.0500  -17.0800    0.0000 O   0  0  0  0  0  0  0  0  0  0  0  0
   21.0000  -17.7800    0.0000 C   0  0  0  0  0  0  0  0  0  0  0  0
   19.7400  -17.0800    0.0000 P   0  0  0  0  0  0  0  0  0  0  0  0
   18.4800  -16.3800    0.0000 O   0  0  0  0  0  0  0  0  0  0  0  0
   17.0800  -16.3800    0.0000 C   0  0  0  0  0  0  0  0  0  0  0  0
   16.3800  -15.1900    0.0000 C   0  0  0  0  0  0  0  0  0  0  0  0
   14.9800  -15.1900    0.0000 C   0  0  0  0  0  0  0  0  0  0  0  0
   14.2800  -16.3800    0.0000 C   0  0  0  0  0  0  0  0  0  0  0  0
   14.9800  -17.5700    0.0000 C   0  0  0  0  0  0  0  0  0  0  0  0
   16.3800  -17.5700    0.0000 C   0  0  0  0  0  0  0  0  0  0  0  0
   20.4400  -15.8200    0.0000 O   0  0  0  0  0  0  0  0  0  0  0  0
   18.6200  -18.2700    0.0000 N   0  0  0  0  0  0  0  0  0  0  0  0
   18.6200  -19.6700    0.0000 C   0  0  0  0  0  0  0  0  0  0  0  0
   17.4300  -20.3700    0.0000 C   0  0  0  0  0  0  0  0  0  0  0  0
   16.2400  -19.6700    0.0000 O   0  0  0  0  0  0  0  0  0  0  0  0
   15.0500  -20.3700    0.0000 C   0  0  0  0  0  0  0  0  0  0  0  0
   13.8600  -19.6700    0.0000 C   0  0  0  0  0  0  0  0  0  0  0  0
   15.0500  -21.7700    0.0000 C   0  0  0  0  0  0  0  0  0  0  0  0
   17.4300  -21.7700    0.0000 O   0  0  0  0  0  0  0  0  0  0  0  0
   19.8100  -20.3700    0.0000 C   0  0  0  0  0  0  0  0  0  0  0  0
   23.3100  -19.1100    0.0000 C   0  0  0  0  0  0  0  0  0  0  0  0
  2  3  1  0
  2  4  1  0
  3  5  1  0
  4  6  1  0
  5  7  1  0
  7  8  1  6
  7  9  1  0
  8 10  1  0
  9 11  1  0
 10 12  2  0
 10 13  1  0
 11 14  1  0
 11 15  2  0
 12 16  1  0
 13 17  2  0
 16 18  2  0
 17 18  1  0
  6 19  2  0
 19 20  1  0
 20 21  2  0
 21 22  1  0
 22 23  2  0
  6 23  1  0
  2 24  1  0
  5 25  1  6
  4 26  2  0
  4 27  2  0
  1 14  1  1
  1 28  1  0
 28 29  1  0
 29 30  1  1
 30 31  1  0
  1 31  1  0
 28 32  1  1
 32 33  1  0
 33 34  1  0
 29 34  1  0
 21 35  1  0
 24 36  1  0
 36 37  1  0
 36 38  1  0
 40 41  1  0
 40 42  1  0
 41 43  1  0
 42 44  1  0
 43 45  1  0
 45 46  1  6
 45 47  1  0
 46 48  1  0
 47 49  1  0
 48 50  2  0
 48 51  1  0
 49 52  1  0
 49 53  2  0
 50 54  1  0
 51 55  2  0
 54 56  2  0
 55 56  1  0
 44 57  2  0
 57 58  1  0
 58 59  2  0
 59 60  1  0
 60 61  2  0
 44 61  1  0
 40 62  1  0
 43 63  1  6
 42 64  2  0
 42 65  2  0
 39 52  1  1
 39 66  1  0
 66 67  1  0
 67 68  1  1
 68 69  1  0
 39 69  1  0
 66 70  1  1
 70 71  1  0
 71 72  1  0
 67 72  1  0
 59 73  1  0
 62 74  1  0
 74 75  1  0
 74 76  1  0
 77 78  1  0
 77 79  1  0
 80 81  1  6
 80 82  1  0
 80 83  1  0
 82 84  1  0
 83 85  1  0
 86 84  1  6
 85 87  1  0
 85 88  2  0
 86 89  1  0
 86 90  1  0
 87 91  1  0
 89 92  1  0
 90 93  1  0
 91 94  1  0
 92 95  2  0
 92 96  1  0
 93 97  1  0
 93 98  2  0
 94 99  1  0
 94100  2  0
 95101  1  0
 96102  2  0
 97103  1  0
 99104  1  0
 99105  1  0
101106  2  0
103107  1  0
104108  1  0
107109  2  0
107110  1  0
108111  1  0
108112  2  0
109113  1  0
110114  1  0
111115  2  0
112116  1  0
115117  1  0
117118  1  0
117119  1  0
102106  1  0
113114  2  0
115116  1  0
 81120  1  0
120121  2  0
121122  1  0
122123  2  0
123124  1  0
124125  2  0
120125  1  0
 87126  1  1
126127  1  0
127128  1  0
128129  1  0
129130  1  0
130131  1  0
131132  1  0
132133  1  0
128133  1  0
141139  1  0
137138  1  0
135134  1  6
136137  1  6
139136  1  0
134142  1  0
142143  2  0
143144  1  0
144145  2  0
145146  1  0
146134  1  0
136140  1  0
144147  1  0
140135  1  0
143148  1  0
135141  1  0
146149  2  0
150151  2  0
151152  1  0
152153  2  0
153154  1  0
154155  2  0
150155  1  0
153156  1  0
156157  1  0
157158  2  0
154158  1  0
155159  1  0
156160  1  0
160161  1  0
161162  1  0
162163  1  0
164163  1  1
161165  1  1
164166  1  0
164167  2  0
164168  1  0
166169  1  0
169170  2  0
170171  1  0
171172  2  0
172173  1  0
173174  2  0
169174  1  0
168175  1  0
175176  1  0
175177  1  1
176178  1  0
176179  2  0
178180  1  0
180181  1  0
180182  1  0
216217  1  0
216218  1  0
216219  2  0
217220  2  0
220221  1  0
221222  1  0
221223  2  0
183184  2  0
184185  1  0
185186  2  0
186187  1  0
187188  2  0
183188  1  0
186189  1  0
189190  1  0
190191  2  0
187191  1  0
188192  1  0
189193  1  0
193194  1  0
194195  1  0
195196  1  0
197196  1  1
194198  1  1
197199  1  0
197200  2  0
197201  1  0
199202  1  0
202203  2  0
203204  1  0
204205  2  0
205206  1  0
206207  2  0
202207  1  0
201208  1  0
208209  1  0
208210  1  1
209211  1  0
209212  2  0
211213  1  0
213214  1  0
213215  1  0
224225  2  0
225226  1  0
226227  2  0
227228  1  0
228229  2  0
224229  1  0
227233  1  0
233232  1  0
232231  2  0
228231  1  0
229230  1  0
233234  1  0
234235  1  0
235236  1  0
236237  1  0
238237  1  1
235256  1  1
238239  1  0
238246  2  0
238247  1  0
239240  1  0
240241  2  0
241242  1  0
242243  2  0
243244  1  0
244245  2  0
240245  1  0
247248  1  0
248249  1  0
248255  1  1
249250  1  0
249254  2  0
250251  1  0
251252  1  0
251253  1  0
M  END
