 
     RDKit          2D

 55 60  0  0  1  0  0  0  0  0999 V2000
   24.1500  -14.0000    0.0000 C   0  0  0  0  0  0  0  0  0  0  0  0
   24.1500  -15.4000    0.0000 C   0  0  0  0  0  0  0  0  0  0  0  0
   22.9600  -13.3000    0.0000 C   0  0  0  0  0  0  0  0  0  0  0  0
   25.3400  -13.3000    0.0000 C   0  0  0  0  0  0  0  0  0  0  0  0
   25.4100  -16.1000    0.0000 C   0  0  0  0  0  0  0  0  0  0  0  0
   22.9600  -16.1000    0.0000 C   0  0  0  0  0  0  0  0  0  0  0  0
   21.7700  -14.0000    0.0000 C   0  0  0  0  0  0  0  0  0  0  0  0
   22.9600  -11.9700    0.0000 O   0  0  0  0  0  0  0  0  0  0  0  0
   26.6700  -13.9300    0.0000 C   0  0  0  0  0  0  0  0  0  0  0  0
   26.6700  -15.4000    0.0000 C   0  0  0  0  0  0  0  0  0  0  0  0
   25.4800  -17.8500    0.0000 O   0  0  0  0  0  0  0  0  0  0  0  0
   21.7700  -15.4000    0.0000 C   0  0  0  0  0  0  0  0  0  0  0  0
   22.9600  -17.4300    0.0000 O   0  0  0  0  0  0  0  0  0  0  0  0
   20.5800  -13.3700    0.0000 C   0  0  0  0  0  0  0  0  0  0  0  0
   27.1600  -18.7600    0.0000 C   0  0  0  0  0  0  0  0  0  0  0  0
   20.5800  -16.1000    0.0000 C   0  0  0  0  0  0  0  0  0  0  0  0
   19.3900  -14.0700    0.0000 C   0  0  0  0  0  0  0  0  0  0  0  0
   20.5800  -11.9700    0.0000 O   0  0  0  0  0  0  0  0  0  0  0  0
   27.1600  -20.1600    0.0000 C   0  0  0  0  0  0  0  0  0  0  0  0
   28.3500  -18.1300    0.0000 O   0  0  0  0  0  0  0  0  0  0  0  0
   19.3900  -15.4000    0.0000 C   0  0  0  0  0  0  0  0  0  0  0  0
   20.5800  -17.4300    0.0000 O   0  0  0  0  0  0  0  0  0  0  0  0
   18.2000  -13.3700    0.0000 C   0  0  0  0  0  0  0  0  0  0  0  0
   28.3500  -20.7900    0.0000 C   0  0  0  0  0  0  0  0  0  0  0  0
   29.4700  -18.7600    0.0000 C   0  0  0  0  0  0  0  0  0  0  0  0
   18.2000  -16.1000    0.0000 C   0  0  0  0  0  0  0  0  0  0  0  0
   17.0100  -14.0700    0.0000 C   0  0  0  0  0  0  0  0  0  0  0  0
   29.4700  -20.1600    0.0000 C   0  0  0  0  0  0  0  0  0  0  0  0
   28.3500  -22.1900    0.0000 N   0  0  0  0  0  0  0  0  0  0  0  0
   30.7300  -18.1300    0.0000 C   0  0  0  0  0  0  0  0  0  0  0  0
   17.0100  -15.4000    0.0000 C   0  0  0  0  0  0  0  0  0  0  0  0
   18.2000  -17.4300    0.0000 O   0  0  0  0  0  0  0  0  0  0  0  0
   30.7300  -20.7900    0.0000 O   0  0  0  0  0  0  0  0  0  0  0  0
   17.0100  -18.1300    0.0000 C   0  0  0  0  0  0  0  0  0  0  0  0
   27.8600  -13.2300    0.0000 C   0  0  0  0  0  0  0  0  0  0  0  0
   29.1200  -13.8600    0.0000 C   0  0  0  0  0  0  0  0  0  0  0  0
   27.8600  -11.7600    0.0000 O   0  0  0  0  0  0  0  0  0  0  0  0
   27.9300  -14.6300    0.0000 O   0  0  0  0  0  0  0  0  0  0  0  0
   22.3986  -17.4645    0.0000 C   0  0  0  0  0  0  0  0  0  0  0  0
   23.7916  -16.8812    0.0000 N   0  0  0  0  0  0  0  0  0  0  0  0
   21.2637  -16.6396    0.0000 O   0  0  0  0  0  0  0  0  0  0  0  0
   21.9658  -18.7927    0.0000 C   0  0  0  0  0  0  0  0  0  0  0  0
   25.0030  -17.5661    0.0000 C   0  0  0  0  0  0  0  0  0  0  0  0
   23.7682  -15.4827    0.0000 C   0  0  0  0  0  0  0  0  0  0  0  0
   20.1286  -17.4645    0.0000 C   0  0  0  0  0  0  0  0  0  0  0  0
   20.5616  -18.7927    0.0000 C   0  0  0  0  0  0  0  0  0  0  0  0
   22.7848  -19.9278    0.0000 O   0  0  0  0  0  0  0  0  0  0  0  0
   26.2080  -16.8485    0.0000 N   0  0  0  0  0  0  0  0  0  0  0  0
   25.0208  -18.9659    0.0000 O   0  0  0  0  0  0  0  0  0  0  0  0
   24.9731  -14.7651    0.0000 C   0  0  0  0  0  0  0  0  0  0  0  0
   18.7947  -17.0317    0.0000 C   0  0  0  0  0  0  0  0  0  0  0  0
   19.7425  -19.9278    0.0000 O   0  0  0  0  0  0  0  0  0  0  0  0
   26.1901  -15.4486    0.0000 C   0  0  0  0  0  0  0  0  0  0  0  0
   17.7591  -17.9735    0.0000 O   0  0  0  0  0  0  0  0  0  0  0  0
   27.3966  -14.7369    0.0000 N   0  0  0  0  0  0  0  0  0  0  0  0
  1  2  1  0
  1  3  2  0
  1  4  1  0
  2  5  1  0
  2  6  2  0
  3  7  1  0
  3  8  1  0
  4  9  1  0
  5 10  1  0
  5 11  1  6
  6 12  1  0
  6 13  1  0
  7 14  1  0
 15 11  1  6
 12 16  1  0
 14 17  1  0
 14 18  2  0
 15 19  1  0
 15 20  1  0
 16 21  1  0
 16 22  2  0
 17 23  2  0
 19 24  1  0
 20 25  1  0
 21 26  2  0
 23 27  1  0
 24 28  1  0
 24 29  1  1
 25 30  1  1
 26 31  1  0
 26 32  1  0
 28 33  1  1
 32 34  1  0
  7 12  2  0
  9 10  1  0
 17 21  1  0
 25 28  1  0
 27 31  2  0
  9 35  1  0
 35 36  1  0
 35 37  2  0
  9 38  1  6
 39 40  1  1
 39 41  1  0
 39 42  1  0
 40 43  1  0
 40 44  1  0
 41 45  1  0
 42 46  1  0
 42 47  1  1
 43 48  1  0
 43 49  2  0
 44 50  2  0
 45 51  1  1
 46 52  1  6
 48 53  2  0
 51 54  1  0
 53 55  1  0
 45 46  1  0
 50 53  1  0
M  END
