 
     RDKit          2D

 94 99  0  0  1  0  0  0  0  0999 V2000
   28.5514  -21.3770    0.0000 C   0  0  0  0  0  0  0  0  0  0  0  0
   28.5514  -22.7540    0.0000 C   0  0  0  0  0  0  0  0  0  0  0  0
   29.7439  -23.4425    0.0000 N   0  0  0  0  0  0  0  0  0  0  0  0
   30.9364  -22.7540    0.0000 C   0  0  0  0  0  0  0  0  0  0  0  0
   30.9364  -21.3770    0.0000 C   0  0  0  0  0  0  0  0  0  0  0  0
   29.7439  -20.6885    0.0000 C   0  0  0  0  0  0  0  0  0  0  0  0
   32.1289  -23.4425    0.0000 C   0  0  0  0  0  0  0  0  0  0  0  0
   33.3214  -22.7540    0.0000 C   0  0  0  0  0  0  0  0  0  0  0  0
   33.3214  -21.3770    0.0000 C   0  0  0  0  0  0  0  0  0  0  0  0
   32.1289  -20.6885    0.0000 C   0  0  0  0  0  0  0  0  0  0  0  0
   34.5140  -20.6885    0.0000 C   0  0  0  0  0  0  0  0  0  0  0  0
   34.5140  -19.3115    0.0000 C   0  0  0  0  0  0  0  0  0  0  0  0
   33.3214  -18.6230    0.0000 C   0  0  0  0  0  0  0  0  0  0  0  0
   32.1289  -19.3115    0.0000 C   0  0  0  0  0  0  0  0  0  0  0  0
   36.8990  -20.6885    0.0000 C   0  0  0  0  0  0  0  0  0  0  0  0
   36.8990  -19.3115    0.0000 C   0  0  0  0  0  0  0  0  0  0  0  0
   35.7065  -18.6230    0.0000 C   0  0  0  0  0  0  0  0  0  0  0  0
   35.7065  -17.2460    0.0000 C   0  0  0  0  0  0  0  0  0  0  0  0
   36.9030  -16.5552    0.0000 N   0  0  0  0  0  0  0  0  0  0  0  0
   34.5180  -16.5597    0.0000 O   0  0  0  0  0  0  0  0  0  0  0  0
   38.0809  -17.2353    0.0000 C   0  0  0  0  0  0  0  0  0  0  0  0
   38.0810  -18.6227    0.0000 C   0  0  0  0  0  0  0  0  0  0  0  0
   39.2735  -19.3111    0.0000 C   0  0  0  0  0  0  0  0  0  0  0  0
   40.4660  -18.6226    0.0000 C   0  0  0  0  0  0  0  0  0  0  0  0
   40.4660  -17.2352    0.0000 C   0  0  0  0  0  0  0  0  0  0  0  0
   39.2734  -16.5468    0.0000 C   0  0  0  0  0  0  0  0  0  0  0  0
   39.2734  -15.1698    0.0000 C   0  0  0  0  0  0  0  0  0  0  0  0
   40.6504  -15.1698    0.0000 F   0  0  0  0  0  0  0  0  0  0  0  0
   39.2734  -13.7928    0.0000 F   0  0  0  0  0  0  0  0  0  0  0  0
   37.8964  -15.1698    0.0000 F   0  0  0  0  0  0  0  0  0  0  0  0
   39.2735  -20.6881    0.0000 C   0  0  0  0  0  0  0  0  0  0  0  0
   37.8964  -20.6881    0.0000 F   0  0  0  0  0  0  0  0  0  0  0  0
   40.6505  -20.6881    0.0000 F   0  0  0  0  0  0  0  0  0  0  0  0
   39.2735  -22.0651    0.0000 F   0  0  0  0  0  0  0  0  0  0  0  0
   27.3589  -23.4425    0.0000 O   0  0  0  0  0  0  0  0  0  0  0  0
   30.9364  -20.0000    0.0000 C   0  0  0  0  0  0  0  0  0  0  0  0
   34.5140  -17.9345    0.0000 C   0  0  0  0  0  0  0  0  0  0  0  0
   26.8800  -13.6500    0.0000 Cl  0  0  0  0  0  0  0  0  0  0  0  0
   20.0900  -15.1200    0.0000 C   0  0  0  0  0  0  0  0  0  0  0  0
   18.9000  -14.4200    0.0000 C   0  0  0  0  0  0  0  0  0  0  0  0
   17.7100  -15.1200    0.0000 C   0  0  0  0  0  0  0  0  0  0  0  0
   16.4500  -14.4200    0.0000 N   0  0  0  0  0  0  0  0  0  0  0  0
   15.2600  -15.1200    0.0000 C   0  0  0  0  0  0  0  0  0  0  0  0
   14.0700  -14.4200    0.0000 C   0  0  0  0  0  0  0  0  0  0  0  0
   12.8800  -15.1200    0.0000 O   0  0  0  0  0  0  0  0  0  0  0  0
   11.6200  -14.4200    0.0000 C   0  0  0  0  0  0  0  0  0  0  0  0
   10.4300  -15.1200    0.0000 C   0  0  0  0  0  0  0  0  0  0  0  0
   20.0900  -16.5200    0.0000 C   0  0  0  0  0  0  0  0  0  0  0  0
   21.3500  -17.2200    0.0000 C   0  0  0  0  0  0  0  0  0  0  0  0
   22.5400  -16.5200    0.0000 C   0  0  0  0  0  0  0  0  0  0  0  0
   22.5400  -15.1200    0.0000 C   0  0  0  0  0  0  0  0  0  0  0  0
   21.3500  -14.4200    0.0000 C   0  0  0  0  0  0  0  0  0  0  0  0
   17.7100  -16.5200    0.0000 C   0  0  0  0  0  0  0  0  0  0  0  0
   11.6200  -13.0200    0.0000 C   0  0  0  0  0  0  0  0  0  0  0  0
   10.4300  -12.3200    0.0000 C   0  0  0  0  0  0  0  0  0  0  0  0
    9.2400  -13.0200    0.0000 C   0  0  0  0  0  0  0  0  0  0  0  0
    9.2400  -14.4200    0.0000 C   0  0  0  0  0  0  0  0  0  0  0  0
   12.8800  -12.3200    0.0000 O   0  0  0  0  0  0  0  0  0  0  0  0
   23.8000  -17.2200    0.0000 O   0  0  0  0  0  0  0  0  0  0  0  0
   24.9900  -16.5200    0.0000 C   0  0  0  0  0  0  0  0  0  0  0  0
   21.3500  -18.6200    0.0000 S   0  0  0  0  0  0  0  0  0  0  0  0
   22.7500  -18.6200    0.0000 O   0  0  0  0  0  0  0  0  0  0  0  0
   21.3500  -20.0200    0.0000 N   0  0  0  0  0  0  0  0  0  0  0  0
   19.9500  -18.6200    0.0000 O   0  0  0  0  0  0  0  0  0  0  0  0
   14.0700  -13.0900    0.0000 C   0  0  0  0  0  0  0  0  0  0  0  0
   15.3300  -12.3900    0.0000 C   0  0  0  0  0  0  0  0  0  0  0  0
   21.6300  -15.1200    0.0000 C   0  0  0  0  0  0  0  0  0  0  0  0
   20.4400  -14.4900    0.0000 C   0  0  0  0  0  0  0  0  0  0  0  0
   19.2500  -15.1200    0.0000 C   0  0  0  0  0  0  0  0  0  0  0  0
   18.0600  -14.4900    0.0000 N   0  0  0  0  0  0  0  0  0  0  0  0
   16.8000  -15.1200    0.0000 C   0  0  0  0  0  0  0  0  0  0  0  0
   15.6100  -14.4900    0.0000 C   0  0  0  0  0  0  0  0  0  0  0  0
   14.4200  -15.1200    0.0000 O   0  0  0  0  0  0  0  0  0  0  0  0
   13.1600  -14.4900    0.0000 C   0  0  0  0  0  0  0  0  0  0  0  0
   11.9700  -15.1200    0.0000 C   0  0  0  0  0  0  0  0  0  0  0  0
   21.6300  -16.5200    0.0000 C   0  0  0  0  0  0  0  0  0  0  0  0
   22.8900  -17.2200    0.0000 C   0  0  0  0  0  0  0  0  0  0  0  0
   24.0100  -16.5200    0.0000 C   0  0  0  0  0  0  0  0  0  0  0  0
   24.0100  -15.1200    0.0000 C   0  0  0  0  0  0  0  0  0  0  0  0
   22.8900  -14.4900    0.0000 C   0  0  0  0  0  0  0  0  0  0  0  0
   19.2500  -16.5200    0.0000 C   0  0  0  0  0  0  0  0  0  0  0  0
   13.1600  -13.0900    0.0000 C   0  0  0  0  0  0  0  0  0  0  0  0
   11.9700  -12.3900    0.0000 C   0  0  0  0  0  0  0  0  0  0  0  0
   10.7800  -13.0900    0.0000 C   0  0  0  0  0  0  0  0  0  0  0  0
   10.7800  -14.4900    0.0000 C   0  0  0  0  0  0  0  0  0  0  0  0
   14.4200  -12.3900    0.0000 O   0  0  0  0  0  0  0  0  0  0  0  0
   25.2700  -17.2200    0.0000 O   0  0  0  0  0  0  0  0  0  0  0  0
   26.4600  -16.5200    0.0000 C   0  0  0  0  0  0  0  0  0  0  0  0
   22.8900  -18.6200    0.0000 S   0  0  0  0  0  0  0  0  0  0  0  0
   24.2200  -18.6200    0.0000 O   0  0  0  0  0  0  0  0  0  0  0  0
   22.8900  -20.0200    0.0000 N   0  0  0  0  0  0  0  0  0  0  0  0
   21.4900  -18.6200    0.0000 O   0  0  0  0  0  0  0  0  0  0  0  0
   15.6100  -13.1600    0.0000 C   0  0  0  0  0  0  0  0  0  0  0  0
   16.8700  -12.4600    0.0000 C   0  0  0  0  0  0  0  0  0  0  0  0
  1  2  1  0
  2  3  1  0
  3  4  1  0
  4  5  1  0
  5  6  1  0
  1  6  2  0
  4  7  1  1
  7  8  1  0
  9  8  1  6
  9 10  1  0
  5 10  1  0
  9 11  1  0
 11 12  1  0
 12 13  1  0
 13 14  1  0
 10 14  1  1
 11 15  1  1
 15 16  1  0
 16 17  1  0
 12 17  1  0
 17 18  1  1
 18 19  1  0
 18 20  2  0
 19 21  1  0
 21 22  2  0
 22 23  1  0
 23 24  2  0
 24 25  1  0
 25 26  2  0
 21 26  1  0
 26 27  1  0
 27 28  1  0
 27 29  1  0
 27 30  1  0
 23 31  1  0
 31 32  1  0
 31 33  1  0
 31 34  1  0
  2 35  2  0
  5 36  1  1
 12 37  1  1
 39 40  1  0
 40 41  1  0
 41 42  1  0
 42 43  1  0
 43 44  1  0
 44 45  1  0
 45 46  1  0
 46 47  2  0
 39 48  2  0
 48 49  1  0
 49 50  2  0
 50 51  1  0
 51 52  2  0
 39 52  1  0
 41 53  1  1
 46 54  1  0
 54 55  2  0
 55 56  1  0
 56 57  2  0
 57 47  1  0
 54 58  1  0
 50 59  1  0
 59 60  1  0
 49 61  1  0
 61 62  2  0
 61 63  1  0
 61 64  2  0
 58 65  1  0
 65 66  1  0
 67 68  1  0
 68 69  1  0
 69 70  1  0
 70 71  1  0
 71 72  1  0
 72 73  1  0
 73 74  1  0
 74 75  2  0
 67 76  2  0
 76 77  1  0
 77 78  2  0
 78 79  1  0
 79 80  2  0
 67 80  1  0
 69 81  1  1
 74 82  1  0
 82 83  2  0
 83 84  1  0
 84 85  2  0
 85 75  1  0
 82 86  1  0
 78 87  1  0
 87 88  1  0
 77 89  1  0
 89 90  2  0
 89 91  1  0
 89 92  2  0
 86 93  1  0
 93 94  1  0
M  END
