 
     RDKit          2D

 79 82  0  0  1  0  0  0  0  0999 V2000
   22.0907  -17.8033    0.0000 C   0  0  0  0  0  0  0  0  0  0  0  0
   20.8724  -18.4968    0.0000 C   0  0  0  0  0  0  0  0  0  0  0  0
   23.0815  -16.8124    0.0000 C   0  0  0  0  0  0  0  0  0  0  0  0
   23.3087  -18.5085    0.0000 O   0  0  0  0  0  0  0  0  0  0  0  0
   20.8724  -17.1096    0.0000 C   0  0  0  0  0  0  0  0  0  0  0  0
   20.8724  -19.8957    0.0000 C   0  0  0  0  0  0  0  0  0  0  0  0
   19.6776  -17.7974    0.0000 C   0  0  0  0  0  0  0  0  0  0  0  0
   24.0607  -15.8216    0.0000 C   0  0  0  0  0  0  0  0  0  0  0  0
   23.2970  -19.9074    0.0000 C   0  0  0  0  0  0  0  0  0  0  0  0
   19.4676  -17.1039    0.0000 F   0  0  0  0  0  0  0  0  0  0  0  0
   20.4935  -15.7516    0.0000 F   0  0  0  0  0  0  0  0  0  0  0  0
   21.8457  -16.1130    0.0000 F   0  0  0  0  0  0  0  0  0  0  0  0
   22.0790  -20.6069    0.0000 N   0  0  0  0  0  0  0  0  0  0  0  0
   19.6776  -20.6009    0.0000 C   0  0  0  0  0  0  0  0  0  0  0  0
   18.4534  -18.4968    0.0000 C   0  0  0  0  0  0  0  0  0  0  0  0
   25.0457  -14.8248    0.0000 C   0  0  0  0  0  0  0  0  0  0  0  0
   24.5036  -20.6126    0.0000 O   0  0  0  0  0  0  0  0  0  0  0  0
   18.4534  -19.8957    0.0000 C   0  0  0  0  0  0  0  0  0  0  0  0
   17.2352  -17.7974    0.0000 Cl  0  0  0  0  0  0  0  0  0  0  0  0
   26.3922  -14.4634    0.0000 C   0  0  0  0  0  0  0  0  0  0  0  0
   25.3954  -13.4783    0.0000 C   0  0  0  0  0  0  0  0  0  0  0  0
   19.1100  -17.9200    0.0000 C   0  0  0  0  0  0  0  0  0  0  0  0
   17.9900  -17.0800    0.0000 O   0  0  0  0  0  0  0  0  0  0  0  0
   18.6900  -19.2500    0.0000 C   0  0  0  0  0  0  0  0  0  0  0  0
   16.8700  -17.9200    0.0000 C   0  0  0  0  0  0  0  0  0  0  0  0
   17.2900  -19.2500    0.0000 S   0  0  0  0  0  0  0  0  0  0  0  0
   15.6800  -17.2900    0.0000 C   0  0  0  0  0  0  0  0  0  0  0  0
   14.3500  -18.1300    0.0000 O   0  0  0  0  0  0  0  0  0  0  0  0
   20.3000  -15.8200    0.0000 C   0  0  0  0  0  0  0  0  0  0  0  0
   20.3000  -17.2200    0.0000 N   0  0  0  0  0  0  0  0  0  0  0  0
   21.4900  -17.9200    0.0000 C   0  0  0  0  0  0  0  0  0  0  0  0
   22.7500  -17.2200    0.0000 N   0  0  0  0  0  0  0  0  0  0  0  0
   22.7500  -15.8200    0.0000 C   0  0  0  0  0  0  0  0  0  0  0  0
   21.4900  -15.1200    0.0000 C   0  0  0  0  0  0  0  0  0  0  0  0
   21.4900  -19.3200    0.0000 O   0  0  0  0  0  0  0  0  0  0  0  0
   23.9400  -15.1200    0.0000 N   0  0  0  0  0  0  0  0  0  0  0  0
   30.8992  -18.5945    0.0000 C   0  0  0  0  0  0  0  0  0  0  0  0
   32.1576  -19.2936    0.0000 C   0  0  0  0  0  0  0  0  0  0  0  0
   33.3460  -18.5945    0.0000 C   0  0  0  0  0  0  0  0  0  0  0  0
   34.5345  -19.2936    0.0000 C   0  0  0  0  0  0  0  0  0  0  0  0
   35.7928  -18.5945    0.0000 O   0  0  0  0  0  0  0  0  0  0  0  0
   29.7108  -19.2936    0.0000 O   0  0  0  0  0  0  0  0  0  0  0  0
   30.8992  -17.1963    0.0000 O   0  0  0  0  0  0  0  0  0  0  0  0
   34.5345  -20.6917    0.0000 O   0  0  0  0  0  0  0  0  0  0  0  0
   26.5368  -16.8840    0.0000 C   0  0  0  0  0  0  0  0  0  0  0  0
   26.5368  -15.4243    0.0000 C   0  0  0  0  0  0  0  0  0  0  0  0
   25.2162  -17.3012    0.0000 N   0  0  0  0  0  0  0  0  0  0  0  0
   27.7880  -17.5096    0.0000 N   0  0  0  0  0  0  0  0  0  0  0  0
   25.2162  -15.0073    0.0000 N   0  0  0  0  0  0  0  0  0  0  0  0
   27.7880  -14.7987    0.0000 C   0  0  0  0  0  0  0  0  0  0  0  0
   24.3820  -16.1889    0.0000 C   0  0  0  0  0  0  0  0  0  0  0  0
   28.9697  -16.8840    0.0000 C   0  0  0  0  0  0  0  0  0  0  0  0
   28.9697  -15.4243    0.0000 N   0  0  0  0  0  0  0  0  0  0  0  0
   27.7880  -13.4085    0.0000 N   0  0  0  0  0  0  0  0  0  0  0  0
   25.2162  -18.6945    0.0000 C   0  0  0  0  0  0  0  0  0  0  0  0
   24.0155  -19.3876    0.0000 C   0  0  0  0  0  0  0  0  0  0  0  0
   22.8023  -18.6870    0.0000 O   0  0  0  0  0  0  0  0  0  0  0  0
   21.5805  -19.3928    0.0000 C   0  0  0  0  0  0  0  0  0  0  0  0
   20.3622  -18.6904    0.0000 P   0  0  0  0  0  0  0  0  0  0  0  0
   19.1554  -17.9937    0.0000 O   0  0  0  0  0  0  0  0  0  0  0  0
   19.6691  -19.8908    0.0000 O   0  0  0  0  0  0  0  0  0  0  0  0
   21.0616  -17.4784    0.0000 O   0  0  0  0  0  0  0  0  0  0  0  0
   19.1554  -16.5955    0.0000 C   0  0  0  0  0  0  0  0  0  0  0  0
   19.6691  -21.2890    0.0000 C   0  0  0  0  0  0  0  0  0  0  0  0
   17.9438  -15.8681    0.0000 O   0  0  0  0  0  0  0  0  0  0  0  0
   16.7329  -16.5671    0.0000 C   0  0  0  0  0  0  0  0  0  0  0  0
   15.5220  -15.8681    0.0000 O   0  0  0  0  0  0  0  0  0  0  0  0
   14.3112  -16.5671    0.0000 C   0  0  0  0  0  0  0  0  0  0  0  0
   13.1003  -15.8681    0.0000 C   0  0  0  0  0  0  0  0  0  0  0  0
   18.4331  -22.0200    0.0000 O   0  0  0  0  0  0  0  0  0  0  0  0
   17.2222  -21.3209    0.0000 C   0  0  0  0  0  0  0  0  0  0  0  0
   16.0114  -22.0200    0.0000 O   0  0  0  0  0  0  0  0  0  0  0  0
   14.8006  -21.3209    0.0000 C   0  0  0  0  0  0  0  0  0  0  0  0
   13.5897  -22.0200    0.0000 C   0  0  0  0  0  0  0  0  0  0  0  0
   16.7329  -17.9651    0.0000 O   0  0  0  0  0  0  0  0  0  0  0  0
   14.3112  -17.9652    0.0000 C   0  0  0  0  0  0  0  0  0  0  0  0
   17.2222  -19.9230    0.0000 O   0  0  0  0  0  0  0  0  0  0  0  0
   14.8006  -19.9229    0.0000 C   0  0  0  0  0  0  0  0  0  0  0  0
   24.0154  -20.7900    0.0000 C   0  0  0  0  0  0  0  0  0  0  0  0
  1  2  1  0
  1  3  1  6
  1  4  1  0
  1  5  1  0
  2  6  2  0
  2  7  1  0
  3  8  3  0
  4  9  1  0
  5 10  1  0
  5 11  1  0
  5 12  1  0
  6 13  1  0
  6 14  1  0
  7 15  2  0
  8 16  1  0
  9 17  2  0
 14 18  2  0
 15 19  1  0
 16 20  1  0
 16 21  1  0
  9 13  1  0
 15 18  1  0
 20 21  1  0
 22 23  1  0
 22 24  1  0
 23 25  1  0
 24 26  1  0
 25 27  1  6
 27 28  1  0
 25 26  1  0
 29 30  1  0
 30 31  1  0
 31 32  1  0
 32 33  2  0
 33 34  1  0
 29 34  2  0
 22 30  1  6
 31 35  2  0
 33 36  1  0
 37 38  1  0
 38 39  2  0
 39 40  1  0
 40 41  1  0
 37 42  1  0
 37 43  2  0
 40 44  2  0
 46 49  1  0
 46 50  1  0
 47 51  1  0
 48 52  2  0
 50 53  2  0
 49 51  2  0
 52 53  1  0
 45 46  2  0
 45 47  1  0
 45 48  1  0
 50 54  1  0
 47 55  1  0
 55 56  1  0
 56 57  1  0
 57 58  1  0
 58 59  1  0
 59 60  1  0
 59 61  1  0
 59 62  2  0
 60 63  1  0
 61 64  1  0
 63 65  1  0
 65 66  1  0
 66 67  1  0
 67 68  1  0
 68 69  1  0
 64 70  1  0
 70 71  1  0
 71 72  1  0
 72 73  1  0
 73 74  1  0
 66 75  2  0
 68 76  1  0
 71 77  2  0
 73 78  1  0
 56 79  1  1
M  END
