 
 
 
 26 29  0  0  1  0  0  0  0  0999 V2000
   35.4458  -15.7906    0.0000 C   0  0  0  0  0  0  0  0  0  0  0  0
   35.4458  -14.3936    0.0000 N   0  0  0  0  0  0  0  0  0  0  0  0
   34.1884  -13.6951    0.0000 C   0  0  0  0  0  0  0  0  0  0  0  0
   32.9311  -14.3936    0.0000 C   0  0  0  0  0  0  0  0  0  0  0  0
   32.9311  -15.7906    0.0000 C   0  0  0  0  0  0  0  0  0  0  0  0
   34.1884  -16.4891    0.0000 N   0  0  0  0  0  0  0  0  0  0  0  0
   35.4458  -18.5847    0.0000 N   0  0  0  0  0  0  0  0  0  0  0  0
   36.6332  -17.8862    0.0000 C   0  0  0  0  0  0  0  0  0  0  0  0
   36.6332  -16.4891    0.0000 C   0  0  0  0  0  0  0  0  0  0  0  0
   31.7436  -16.4891    0.0000 N   0  0  0  0  0  0  0  0  0  0  0  0
   31.7436  -17.8862    0.0000 C   0  0  0  0  0  0  0  0  0  0  0  0
   35.4458  -19.9817    0.0000 C   0  0  0  0  0  0  0  0  0  0  0  0
   32.9311  -19.9817    0.0000 O   0  0  0  0  0  0  0  0  0  0  0  0
   34.1884  -20.6802    0.0000 C   0  0  0  0  0  0  0  0  0  0  0  0
   31.5341  -19.9817    0.0000 C   0  0  0  0  0  0  0  0  0  0  0  0
   31.1848  -18.6545    0.0000 C   0  0  0  0  0  0  0  0  0  0  0  0
   37.6112  -15.1619    0.0000 C   0  0  0  0  0  0  0  0  0  0  0  0
   36.6332  -13.8348    0.0000 N   0  0  0  0  0  0  0  0  0  0  0  0
   29.8576  -18.3053    0.0000 C   0  0  0  0  0  0  0  0  0  0  0  0
   28.8099  -19.2832    0.0000 C   0  0  0  0  0  0  0  0  0  0  0  0
   29.2290  -20.6104    0.0000 C   0  0  0  0  0  0  0  0  0  0  0  0
   30.5562  -20.9596    0.0000 C   0  0  0  0  0  0  0  0  0  0  0  0
   27.4827  -18.8641    0.0000 F   0  0  0  0  0  0  0  0  0  0  0  0
   37.8207  -18.5847    0.0000 O   0  0  0  0  0  0  0  0  0  0  0  0
   34.1884  -22.0773    0.0000 C   0  0  0  0  0  0  0  0  0  0  0  0
   33.0537  -18.3129    0.0000 C   0  0  0  0  0  0  0  0  0  0  0  0
  1  2  1  0     0  0
  2  3  1  0     0  0
  3  4  2  0     0  0
  4  5  1  0     0  0
  5  6  2  0     0  0
  1  6  1  0     0  0
  7  8  1  0     0  0
  8  9  1  0     0  0
  1  9  2  0     0  0
  5 10  1  0     0  0
 10 11  1  0     0  0
 12  7  1  0     0  0
 13 14  1  0     0  0
 12 14  1  0     0  0
 13 15  1  0     0  0
 15 16  1  0     0  0
 16 11  1  0     0  0
  9 17  1  0     0  0
 17 18  2  0     0  0
 18  2  1  0     0  0
 16 19  2  0     0  0
 19 20  1  0     0  0
 20 21  2  0     0  0
 21 22  1  0     0  0
 15 22  2  0     0  0
 20 23  1  0     0  0
  8 24  2  0     0  0
 14 25  1  6     0  0
 11 26  1  6     0  0
M  END
