 
 
 
 29 29  0  0  0  0  0  0  0  0999 V2000
   10.5067  -16.1101    0.0000 C   0  0  3  0  0  0  0  0  0  0  0  0
   11.6972  -15.4098    0.0000 O   0  0  0  0  0  0  0  0  0  0  0  0
    9.2462  -15.4098    0.0000 F   0  0  0  0  0  0  0  0  0  0  0  0
   10.5067  -17.5107    0.0000 F   0  0  0  0  0  0  0  0  0  0  0  0
    9.2462  -16.8104    0.0000 F   0  0  0  0  0  0  0  0  0  0  0  0
   12.9578  -16.1101    0.0000 C   0  0  0  0  0  0  0  0  0  0  0  0
   14.1483  -15.4098    0.0000 C   0  0  0  0  0  0  0  0  0  0  0  0
   12.9578  -17.5107    0.0000 C   0  0  0  0  0  0  0  0  0  0  0  0
   15.3388  -16.1101    0.0000 C   0  0  0  0  0  0  0  0  0  0  0  0
   14.1483  -18.2110    0.0000 C   0  0  0  0  0  0  0  0  0  0  0  0
   15.3388  -17.5107    0.0000 C   0  0  0  0  0  0  0  0  0  0  0  0
   16.6694  -15.6199    0.0000 S   0  0  0  0  0  0  0  0  0  0  0  0
   16.6694  -17.9309    0.0000 N   0  0  0  0  0  0  0  0  0  0  0  0
   17.5098  -16.7404    0.0000 C   0  0  0  0  0  0  0  0  0  0  0  0
   18.9104  -16.7404    0.0000 N   0  0  0  0  0  0  0  0  0  0  0  0
   19.6107  -17.9309    0.0000 C   0  0  0  0  0  0  0  0  0  0  0  0
   21.0113  -17.9309    0.0000 C   0  0  0  0  0  0  0  0  0  0  0  0
   18.9104  -19.1914    0.0000 O   0  0  0  0  0  0  0  0  0  0  0  0
   21.7116  -16.7404    0.0000 N   0  0  0  0  0  0  0  0  0  0  0  0
   23.1122  -16.7404    0.0000 C   0  0  0  0  0  0  0  0  0  0  0  0
   21.0113  -15.5498    0.0000 C   0  0  0  0  0  0  0  0  0  0  0  0
   23.8125  -15.5498    0.0000 C   0  0  0  0  0  0  0  0  0  0  0  0
   23.8125  -17.9309    0.0000 O   0  0  0  0  0  0  0  0  0  0  0  0
   25.2131  -15.5498    0.0000 N   0  0  0  0  0  0  0  0  0  0  0  0
   25.9134  -14.3593    0.0000 C   0  0  0  0  0  0  0  0  0  0  0  0
   27.3140  -14.3593    0.0000 C   0  0  0  0  0  0  0  0  0  0  0  0
   25.2131  -13.1688    0.0000 O   0  0  0  0  0  0  0  0  0  0  0  0
   28.0144  -13.1688    0.0000 N   0  0  0  0  0  0  0  0  0  0  0  0
   28.7700  -19.1100    0.0000 Cl  0  0  0  0  0  0  0  0  0  0  0  0
  1  2  1  0     0  0
  1  3  1  0     0  0
  1  4  1  0     0  0
  1  5  1  0     0  0
  2  6  1  0     0  0
  6  7  2  0     0  0
  6  8  1  0     0  0
  7  9  1  0     0  0
  8 10  2  0     0  0
  9 11  2  0     0  0
  9 12  1  0     0  0
 11 13  1  0     0  0
 12 14  1  0     0  0
 14 15  1  0     0  0
 10 11  1  0     0  0
 13 14  2  0     0  0
 15 16  1  0     0  0
 16 17  1  0     0  0
 16 18  2  0     0  0
 17 19  1  0     0  0
 19 20  1  0     0  0
 19 21  1  0     0  0
 20 22  1  0     0  0
 20 23  2  0     0  0
 22 24  1  0     0  0
 24 25  1  0     0  0
 25 26  1  0     0  0
 25 27  2  0     0  0
 26 28  1  0     0  0
M  END
