 
     RDKit          2D

 35 35  0  0  0  0  0  0  0  0999 V2000
   26.6164  -16.3136    0.0000 O   0  0  0  0  0  0  0  0  0  0  0  0
   25.4050  -17.0138    0.0000 C   0  0  0  0  0  0  0  0  0  0  0  0
   24.1928  -16.3148    0.0000 C   0  0  0  0  0  0  0  0  0  0  0  0
   25.4056  -18.4130    0.0000 O   0  0  0  0  0  0  0  0  0  0  0  0
   22.9815  -17.0150    0.0000 C   0  0  0  0  0  0  0  0  0  0  0  0
   21.7750  -16.3132    0.0000 C   0  0  0  0  0  0  0  0  0  0  0  0
   20.5638  -17.0135    0.0000 C   0  0  0  0  0  0  0  0  0  0  0  0
   20.5644  -18.4127    0.0000 C   0  0  0  0  0  0  0  0  0  0  0  0
   21.7765  -19.1116    0.0000 C   0  0  0  0  0  0  0  0  0  0  0  0
   22.9878  -18.4113    0.0000 C   0  0  0  0  0  0  0  0  0  0  0  0
   19.3530  -19.1128    0.0000 C   0  0  0  0  0  0  0  0  0  0  0  0
   18.1408  -18.4139    0.0000 C   0  0  0  0  0  0  0  0  0  0  0  0
   16.9295  -19.1141    0.0000 C   0  0  0  0  0  0  0  0  0  0  0  0
   18.1401  -17.0147    0.0000 C   0  0  0  0  0  0  0  0  0  0  0  0
   24.1920  -14.9103    0.0000 C   0  0  0  0  0  0  0  0  0  0  0  0
   21.2100  -23.8000    0.0000 C   0  0  0  0  0  0  0  0  0  0  0  0
   22.4700  -23.1000    0.0000 S   0  0  0  0  0  0  0  0  0  0  0  0
   23.6600  -23.8000    0.0000 C   0  0  0  0  0  0  0  0  0  0  0  0
   24.8500  -23.1000    0.0000 C   0  0  0  0  0  0  0  0  0  0  0  0
   26.1100  -23.8000    0.0000 C   0  0  0  0  0  0  0  0  0  0  0  0
   27.3000  -23.1000    0.0000 N   0  0  0  0  0  0  0  0  0  0  0  0
   20.0200  -23.1000    0.0000 C   0  0  0  0  0  0  0  0  0  0  0  0
   20.0200  -21.7000    0.0000 N   0  0  0  0  0  0  0  0  0  0  0  0
   18.6900  -21.2800    0.0000 C   0  0  0  0  0  0  0  0  0  0  0  0
   17.8500  -22.4000    0.0000 S   0  0  0  0  0  0  0  0  0  0  0  0
   18.6900  -23.5200    0.0000 C   0  0  0  0  0  0  0  0  0  0  0  0
   18.2620  -19.9470    0.0000 N   0  0  0  0  0  0  0  0  0  0  0  0
   16.9019  -19.6530    0.0000 C   0  0  0  0  0  0  0  0  0  0  0  0
   15.9389  -20.7155    0.0000 N   0  0  0  0  0  0  0  0  0  0  0  0
   16.4756  -18.3267    0.0000 N   0  0  0  0  0  0  0  0  0  0  0  0
   26.1272  -25.1999    0.0000 N   0  0  0  0  0  0  0  0  0  0  0  0
   28.5181  -23.7901    0.0000 S   0  0  0  0  0  0  0  0  0  0  0  0
   29.6995  -23.0950    0.0000 O   0  0  0  0  0  0  0  0  0  0  0  0
   28.4598  -25.1994    0.0000 O   0  0  0  0  0  0  0  0  0  0  0  0
   29.7021  -24.5005    0.0000 N   0  0  0  0  0  0  0  0  0  0  0  0
  2  4  2  0
  3  5  1  0
  5  6  2  0
  6  7  1  0
  7  8  2  0
  8  9  1  0
  9 10  2  0
 10  5  1  0
  8 11  1  0
  1  2  1  0
 11 12  1  0
 12 13  1  0
  2  3  1  0
 12 14  1  0
  3 15  1  0
 16 17  1  0
 17 18  1  0
 18 19  1  0
 19 20  1  0
 20 21  2  0
 16 22  1  0
 22 23  1  0
 23 24  2  0
 24 25  1  0
 25 26  1  0
 22 26  2  0
 24 27  1  0
 27 28  2  3
 28 29  1  0
 28 30  1  0
 20 31  1  0
 21 32  1  0
 32 33  2  0
 32 34  2  0
 32 35  1  0
M  END
