 
     RDKit          2D

120122  0  0  1  0  0  0  0  0999 V2000
   24.6254  -20.0866    0.0000 C   0  0  0  0  0  0  0  0  0  0  0  0
   24.6254  -21.4127    0.0000 C   0  0  0  0  0  0  0  0  0  0  0  0
   25.8119  -19.3887    0.0000 C   0  0  0  0  0  0  0  0  0  0  0  0
   23.5087  -19.3887    0.0000 C   0  0  0  0  0  0  0  0  0  0  0  0
   23.5087  -22.1106    0.0000 C   0  0  0  0  0  0  0  0  0  0  0  0
   25.8119  -22.1106    0.0000 C   0  0  0  0  0  0  0  0  0  0  0  0
   26.9983  -20.0866    0.0000 C   0  0  0  0  0  0  0  0  0  0  0  0
   22.3222  -20.0866    0.0000 C   0  0  0  0  0  0  0  0  0  0  0  0
   22.3222  -21.4127    0.0000 C   0  0  0  0  0  0  0  0  0  0  0  0
   26.9983  -21.3429    0.0000 C   0  0  0  0  0  0  0  0  0  0  0  0
   28.1848  -19.3887    0.0000 C   0  0  0  0  0  0  0  0  0  0  0  0
   21.1358  -22.1106    0.0000 O   0  0  0  0  0  0  0  0  0  0  0  0
   29.3015  -20.0866    0.0000 C   0  0  0  0  0  0  0  0  0  0  0  0
   28.1848  -18.0626    0.0000 C   0  0  0  0  0  0  0  0  0  0  0  0
   19.4607  -21.0637    0.0000 C   0  0  0  0  0  0  0  0  0  0  0  0
   30.6974  -19.1793    0.0000 O   0  0  0  0  0  0  0  0  0  0  0  0
   29.3015  -21.4127    0.0000 O   0  0  0  0  0  0  0  0  0  0  0  0
   20.3918  -19.3472    0.0000 C   0  0  0  0  0  0  0  0  0  0  0  0
   20.3918  -20.7493    0.0000 C   0  0  0  0  0  0  0  0  0  0  0  0
   21.6097  -21.4467    0.0000 C   0  0  0  0  0  0  0  0  0  0  0  0
   21.6097  -18.6427    0.0000 C   0  0  0  0  0  0  0  0  0  0  0  0
   22.8207  -19.3472    0.0000 C   0  0  0  0  0  0  0  0  0  0  0  0
   22.8148  -20.7527    0.0000 C   0  0  0  0  0  0  0  0  0  0  0  0
   24.1500  -21.1904    0.0000 N   0  0  0  0  0  0  0  0  0  0  0  0
   24.9834  -20.0554    0.0000 C   0  0  0  0  0  0  0  0  0  0  0  0
   24.1593  -18.9137    0.0000 N   0  0  0  0  0  0  0  0  0  0  0  0
   26.3731  -20.1218    0.0000 S   0  0  0  0  0  0  0  0  0  0  0  0
   27.0706  -21.3335    0.0000 C   0  0  0  0  0  0  0  0  0  0  0  0
   28.4655  -21.3335    0.0000 C   0  0  0  0  0  0  0  0  0  0  0  0
   29.1663  -22.5426    0.0000 C   0  0  0  0  0  0  0  0  0  0  0  0
   30.5613  -22.5426    0.0000 C   0  0  0  0  0  0  0  0  0  0  0  0
   31.2554  -21.3335    0.0000 C   0  0  0  0  0  0  0  0  0  0  0  0
   30.5613  -20.1245    0.0000 C   0  0  0  0  0  0  0  0  0  0  0  0
   29.1663  -20.1245    0.0000 N   0  0  0  0  0  0  0  0  0  0  0  0
   32.6572  -21.3335    0.0000 C   0  0  0  0  0  0  0  0  0  0  0  0
   31.2587  -23.7576    0.0000 O   0  0  0  0  0  0  0  0  0  0  0  0
   32.6608  -23.7576    0.0000 C   0  0  0  0  0  0  0  0  0  0  0  0
   28.4619  -23.7576    0.0000 C   0  0  0  0  0  0  0  0  0  0  0  0
   27.0682  -18.9053    0.0000 O   0  0  0  0  0  0  0  0  0  0  0  0
   19.1841  -21.4472    0.0000 O   0  0  0  0  0  0  0  0  0  0  0  0
   17.9687  -20.7505    0.0000 C   0  0  0  0  0  0  0  0  0  0  0  0
   36.7654  -19.6553    0.0000 Mg  0  0  0  0  0 15  0  0  0  0  0  0
   38.0919  -22.0340    0.0000 O   0  0  0  0  0  0  0  0  0  0  0  0
   20.3918  -19.3472    0.0000 C   0  0  0  0  0  0  0  0  0  0  0  0
   21.6097  -18.6427    0.0000 C   0  0  0  0  0  0  0  0  0  0  0  0
   22.8207  -19.3472    0.0000 C   0  0  0  0  0  0  0  0  0  0  0  0
   22.8148  -20.7527    0.0000 C   0  0  0  0  0  0  0  0  0  0  0  0
   21.6097  -21.4467    0.0000 C   0  0  0  0  0  0  0  0  0  0  0  0
   20.3918  -20.7493    0.0000 C   0  0  0  0  0  0  0  0  0  0  0  0
   19.1841  -21.4472    0.0000 O   0  0  0  0  0  0  0  0  0  0  0  0
   17.9687  -20.7505    0.0000 C   0  0  0  0  0  0  0  0  0  0  0  0
   24.1500  -21.1904    0.0000 N   0  0  0  0  0  0  0  0  0  0  0  0
   24.9834  -20.0554    0.0000 C   0  0  0  0  0  0  0  0  0  0  0  0
   26.3731  -20.1218    0.0000 S   0  0  0  0  0  0  0  0  0  0  0  0
   27.0706  -21.3335    0.0000 C   0  0  0  0  0  0  0  0  0  0  0  0
   28.4655  -21.3335    0.0000 C   0  0  0  0  0  0  0  0  0  0  0  0
   29.1663  -22.5426    0.0000 C   0  0  0  0  0  0  0  0  0  0  0  0
   30.5613  -22.5426    0.0000 C   0  0  0  0  0  0  0  0  0  0  0  0
   31.2554  -21.3335    0.0000 C   0  0  0  0  0  0  0  0  0  0  0  0
   30.5613  -20.1245    0.0000 C   0  0  0  0  0  0  0  0  0  0  0  0
   29.1663  -20.1245    0.0000 N   0  0  0  0  0  0  0  0  0  0  0  0
   32.6572  -21.3335    0.0000 C   0  0  0  0  0  0  0  0  0  0  0  0
   31.2587  -23.7576    0.0000 O   0  0  0  0  0  0  0  0  0  0  0  0
   32.6608  -23.7576    0.0000 C   0  0  0  0  0  0  0  0  0  0  0  0
   28.4619  -23.7576    0.0000 C   0  0  0  0  0  0  0  0  0  0  0  0
   27.0682  -18.9053    0.0000 O   0  0  0  0  0  0  0  0  0  0  0  0
   24.1593  -18.9137    0.0000 N   0  0  0  0  0  0  0  0  0  0  0  0
   38.0919  -22.0340    0.0000 O   0  0  0  0  0  0  0  0  0  0  0  0
   38.0919  -22.0340    0.0000 O   0  0  0  0  0  0  0  0  0  0  0  0
   11.4100  -14.3500    0.0000 C   0  0  0  0  0  0  0  0  0  0  0  0
   11.4100  -15.7500    0.0000 C   0  0  0  0  0  0  0  0  0  0  0  0
   12.6700  -16.4500    0.0000 C   0  0  0  0  0  0  0  0  0  0  0  0
   12.6700  -13.6500    0.0000 C   0  0  0  0  0  0  0  0  0  0  0  0
   13.8600  -14.3500    0.0000 C   0  0  0  0  0  0  0  0  0  0  0  0
   13.8600  -15.7500    0.0000 C   0  0  0  0  0  0  0  0  0  0  0  0
   15.1900  -16.2400    0.0000 N   0  0  0  0  0  0  0  0  0  0  0  0
   16.0300  -15.1200    0.0000 C   0  0  0  0  0  0  0  0  0  0  0  0
   15.1900  -13.9300    0.0000 N   0  0  0  0  0  0  0  0  0  0  0  0
   17.4300  -15.1200    0.0000 S   0  0  0  0  0  0  0  0  0  0  0  0
   18.1300  -16.3800    0.0000 C   0  0  0  0  0  0  0  0  0  0  0  0
   19.5300  -16.3800    0.0000 C   0  0  0  0  0  0  0  0  0  0  0  0
   20.2300  -17.5700    0.0000 C   0  0  0  0  0  0  0  0  0  0  0  0
   21.6300  -17.5700    0.0000 C   0  0  0  0  0  0  0  0  0  0  0  0
   22.3300  -16.3800    0.0000 C   0  0  0  0  0  0  0  0  0  0  0  0
   21.6300  -15.1200    0.0000 C   0  0  0  0  0  0  0  0  0  0  0  0
   20.2300  -15.1200    0.0000 N   0  0  0  0  0  0  0  0  0  0  0  0
   23.7300  -16.3800    0.0000 C   0  0  0  0  0  0  0  0  0  0  0  0
   22.3300  -18.7600    0.0000 O   0  0  0  0  0  0  0  0  0  0  0  0
   23.7300  -18.7600    0.0000 C   0  0  0  0  0  0  0  0  0  0  0  0
   19.5300  -18.7600    0.0000 C   0  0  0  0  0  0  0  0  0  0  0  0
   18.1300  -13.9300    0.0000 O   0  0  0  0  0  0  0  0  0  0  0  0
   10.2200  -16.4500    0.0000 O   0  0  0  0  0  0  0  0  0  0  0  0
    9.0300  -15.7500    0.0000 C   0  0  0  0  0  0  0  0  0  0  0  0
   27.7900  -14.7000    0.0000 Mg  0  0  0  0  0 15  0  0  0  0  0  0
   29.1200  -17.0800    0.0000 O   0  0  0  0  0  0  0  0  0  0  0  0
   11.4100  -14.3500    0.0000 C   0  0  0  0  0  0  0  0  0  0  0  0
   12.6700  -13.6500    0.0000 C   0  0  0  0  0  0  0  0  0  0  0  0
   13.8600  -14.3500    0.0000 C   0  0  0  0  0  0  0  0  0  0  0  0
   13.8600  -15.7500    0.0000 C   0  0  0  0  0  0  0  0  0  0  0  0
   12.6700  -16.4500    0.0000 C   0  0  0  0  0  0  0  0  0  0  0  0
   11.4100  -15.7500    0.0000 C   0  0  0  0  0  0  0  0  0  0  0  0
   10.2200  -16.4500    0.0000 O   0  0  0  0  0  0  0  0  0  0  0  0
    9.0300  -15.7500    0.0000 C   0  0  0  0  0  0  0  0  0  0  0  0
   15.1900  -16.2400    0.0000 N   0  0  0  0  0  0  0  0  0  0  0  0
   16.0300  -15.1200    0.0000 C   0  0  0  0  0  0  0  0  0  0  0  0
   17.4300  -15.1200    0.0000 S   0  0  0  0  0  0  0  0  0  0  0  0
   18.1300  -16.3800    0.0000 C   0  0  0  0  0  0  0  0  0  0  0  0
   19.5300  -16.3800    0.0000 C   0  0  0  0  0  0  0  0  0  0  0  0
   20.2300  -17.5700    0.0000 C   0  0  0  0  0  0  0  0  0  0  0  0
   21.6300  -17.5700    0.0000 C   0  0  0  0  0  0  0  0  0  0  0  0
   22.3300  -16.3800    0.0000 C   0  0  0  0  0  0  0  0  0  0  0  0
   21.6300  -15.1200    0.0000 C   0  0  0  0  0  0  0  0  0  0  0  0
   20.2300  -15.1200    0.0000 N   0  0  0  0  0  0  0  0  0  0  0  0
   23.7300  -16.3800    0.0000 C   0  0  0  0  0  0  0  0  0  0  0  0
   22.3300  -18.7600    0.0000 O   0  0  0  0  0  0  0  0  0  0  0  0
   23.7300  -18.7600    0.0000 C   0  0  0  0  0  0  0  0  0  0  0  0
   19.5300  -18.7600    0.0000 C   0  0  0  0  0  0  0  0  0  0  0  0
   18.1300  -13.9300    0.0000 O   0  0  0  0  0  0  0  0  0  0  0  0
   15.1900  -13.9300    0.0000 N   0  0  0  0  0  0  0  0  0  0  0  0
   29.1200  -17.0800    0.0000 O   0  0  0  0  0  0  0  0  0  0  0  0
  1  2  1  0
  1  3  2  0
  1  4  1  0
  2  5  1  0
  2  6  2  0
  3  7  1  0
  4  8  2  0
  5  9  2  0
  6 10  1  0
  7 11  1  0
  9 12  1  0
 11 13  1  0
 11 14  1  6
 12 15  1  0
 13 16  1  0
 13 17  2  0
  7 10  2  0
  8  9  1  0
 19 20  2  0
 40 41  1  0
 25 27  1  0
 20 23  1  0
 27 28  1  1
 22 21  1  0
 28 29  1  0
 21 18  2  0
 29 30  2  0
 30 31  1  0
 31 32  2  0
 32 33  1  0
 33 34  2  0
 34 29  1  0
 18 19  1  0
 32 35  1  0
 22 23  2  0
 31 36  1  0
 23 24  1  0
 36 37  1  0
 24 25  2  0
 30 38  1  0
 25 26  1  0
 27 39  2  0
 26 22  1  0
 19 40  1  0
 49 48  2  0
 50 51  1  0
 53 54  1  0
 48 47  1  0
 54 55  1  1
 46 45  1  0
 55 56  1  0
 45 44  2  0
 56 57  2  0
 57 58  1  0
 58 59  2  0
 59 60  1  0
 60 61  2  0
 61 56  1  0
 44 49  1  0
 59 62  1  0
 46 47  2  0
 58 63  1  0
 47 52  1  0
 63 64  1  0
 52 53  2  0
 57 65  1  0
 53 67  1  0
 54 66  2  0
 67 46  1  0
 49 50  1  0
 71 72  2  0
 92 93  1  0
 77 79  1  0
 72 75  1  0
 79 80  1  1
 74 73  1  0
 80 81  1  0
 73 70  2  0
 81 82  2  0
 82 83  1  0
 83 84  2  0
 84 85  1  0
 85 86  2  0
 86 81  1  0
 70 71  1  0
 84 87  1  0
 74 75  2  0
 83 88  1  0
 75 76  1  0
 88 89  1  0
 76 77  2  0
 82 90  1  0
 77 78  1  0
 79 91  2  0
 78 74  1  0
 71 92  1  0
101100  2  0
102103  1  0
105106  1  0
100 99  1  0
106107  1  1
 98 97  1  0
107108  1  0
 97 96  2  0
108109  2  0
109110  1  0
110111  2  0
111112  1  0
112113  2  0
113108  1  0
 96101  1  0
111114  1  0
 98 99  2  0
110115  1  0
 99104  1  0
115116  1  0
104105  2  0
109117  1  0
105119  1  0
106118  2  0
119 98  1  0
101102  1  0
M  CHG  6  26  -1  42   2  67  -1  78  -1  94   2 119  -1
M  END
