 
     RDKit          2D

 76 82  0  0  1  0  0  0  0  0999 V2000
   21.5600  -21.8400    0.0000 C   0  0  0  0  0  0  0  0  0  0  0  0
   21.5600  -20.4400    0.0000 N   0  0  0  0  0  0  0  0  0  0  0  0
   22.7500  -19.7400    0.0000 C   0  0  0  0  0  0  0  0  0  0  0  0
   24.0100  -20.4400    0.0000 C   0  0  0  0  0  0  0  0  0  0  0  0
   24.0100  -21.8400    0.0000 C   0  0  0  0  0  0  0  0  0  0  0  0
   22.7500  -22.5400    0.0000 C   0  0  0  0  0  0  0  0  0  0  0  0
   20.3700  -22.5400    0.0000 C   0  0  0  0  0  0  0  0  0  0  0  0
   19.1100  -21.8400    0.0000 N   0  0  0  0  0  0  0  0  0  0  0  0
   19.1100  -20.4400    0.0000 C   0  0  0  0  0  0  0  0  0  0  0  0
   20.3700  -19.7400    0.0000 C   0  0  0  0  0  0  0  0  0  0  0  0
   17.8500  -22.5400    0.0000 C   0  0  0  0  0  0  0  0  0  0  0  0
   16.6600  -21.8400    0.0000 C   0  0  0  0  0  0  0  0  0  0  0  0
   16.6600  -20.4400    0.0000 C   0  0  0  0  0  0  0  0  0  0  0  0
   17.8500  -19.7400    0.0000 O   0  0  0  0  0  0  0  0  0  0  0  0
   20.3700  -23.9400    0.0000 O   0  0  0  0  0  0  0  0  0  0  0  0
   22.7500  -23.9400    0.0000 O   0  0  0  0  0  0  0  0  0  0  0  0
   25.2000  -22.5400    0.0000 O   0  0  0  0  0  0  0  0  0  0  0  0
   25.2000  -19.7400    0.0000 C   0  0  0  0  0  0  0  0  0  0  0  0
   26.3900  -20.4400    0.0000 N   0  0  0  0  0  0  0  0  0  0  0  0
   25.2000  -18.3400    0.0000 O   0  0  0  0  0  0  0  0  0  0  0  0
   27.5800  -19.7400    0.0000 C   0  0  0  0  0  0  0  0  0  0  0  0
   28.7700  -20.4400    0.0000 C   0  0  0  0  0  0  0  0  0  0  0  0
   29.9600  -19.7400    0.0000 C   0  0  0  0  0  0  0  0  0  0  0  0
   31.2200  -20.4400    0.0000 C   0  0  0  0  0  0  0  0  0  0  0  0
   31.2200  -21.8400    0.0000 C   0  0  0  0  0  0  0  0  0  0  0  0
   30.0300  -22.5400    0.0000 C   0  0  0  0  0  0  0  0  0  0  0  0
   28.7700  -21.8400    0.0000 C   0  0  0  0  0  0  0  0  0  0  0  0
   27.5800  -22.5400    0.0000 F   0  0  0  0  0  0  0  0  0  0  0  0
   32.4100  -22.5400    0.0000 F   0  0  0  0  0  0  0  0  0  0  0  0
   19.1100  -23.2400    0.0000 C   0  0  0  0  0  0  0  0  0  0  0  0
   24.6400  -24.5700    0.0000 Na  0  0  0  0  0 15  0  0  0  0  0  0
   17.0100  -20.8600    0.0000 C   0  0  0  0  0  0  0  0  0  0  0  0
   17.0100  -19.4600    0.0000 N   0  0  0  0  0  0  0  0  0  0  0  0
   18.2000  -18.7600    0.0000 C   0  0  0  0  0  0  0  0  0  0  0  0
   19.4600  -19.4600    0.0000 C   0  0  0  0  0  0  0  0  0  0  0  0
   19.4600  -20.8600    0.0000 C   0  0  0  0  0  0  0  0  0  0  0  0
   18.2000  -21.5600    0.0000 C   0  0  0  0  0  0  0  0  0  0  0  0
   15.8200  -21.5600    0.0000 C   0  0  0  0  0  0  0  0  0  0  0  0
   14.5600  -20.8600    0.0000 N   0  0  0  0  0  0  0  0  0  0  0  0
   14.5600  -19.4600    0.0000 C   0  0  0  0  0  0  0  0  0  0  0  0
   15.8200  -18.7600    0.0000 C   0  0  0  0  0  0  0  0  0  0  0  0
   13.3700  -21.5600    0.0000 C   0  0  0  0  0  0  0  0  0  0  0  0
   12.1800  -20.8600    0.0000 C   0  0  0  0  0  0  0  0  0  0  0  0
   12.1800  -19.4600    0.0000 C   0  0  0  0  0  0  0  0  0  0  0  0
   13.3700  -18.7600    0.0000 O   0  0  0  0  0  0  0  0  0  0  0  0
   15.8200  -22.9600    0.0000 O   0  0  0  0  0  0  0  0  0  0  0  0
   18.2000  -22.9600    0.0000 O   0  0  0  0  0  0  0  0  0  0  0  0
   20.6500  -21.5600    0.0000 O   0  0  0  0  0  0  0  0  0  0  0  0
   20.6500  -18.7600    0.0000 C   0  0  0  0  0  0  0  0  0  0  0  0
   21.8400  -19.4600    0.0000 N   0  0  0  0  0  0  0  0  0  0  0  0
   20.6500  -17.3600    0.0000 O   0  0  0  0  0  0  0  0  0  0  0  0
   23.0300  -18.7600    0.0000 C   0  0  0  0  0  0  0  0  0  0  0  0
   24.2200  -19.4600    0.0000 C   0  0  0  0  0  0  0  0  0  0  0  0
   25.4100  -18.7600    0.0000 C   0  0  0  0  0  0  0  0  0  0  0  0
   26.6700  -19.4600    0.0000 C   0  0  0  0  0  0  0  0  0  0  0  0
   26.6700  -20.8600    0.0000 C   0  0  0  0  0  0  0  0  0  0  0  0
   25.4800  -21.5600    0.0000 C   0  0  0  0  0  0  0  0  0  0  0  0
   24.2200  -20.8600    0.0000 C   0  0  0  0  0  0  0  0  0  0  0  0
   23.0300  -21.5600    0.0000 F   0  0  0  0  0  0  0  0  0  0  0  0
   27.8600  -21.5600    0.0000 F   0  0  0  0  0  0  0  0  0  0  0  0
   14.5600  -22.2600    0.0000 C   0  0  0  0  0  0  0  0  0  0  0  0
   19.1100  -17.9200    0.0000 C   0  0  0  0  0  0  0  0  0  0  0  0
   17.9900  -17.0800    0.0000 O   0  0  0  0  0  0  0  0  0  0  0  0
   18.6900  -19.2500    0.0000 C   0  0  0  0  0  0  0  0  0  0  0  0
   16.8700  -17.9200    0.0000 C   0  0  0  0  0  0  0  0  0  0  0  0
   17.2900  -19.2500    0.0000 S   0  0  0  0  0  0  0  0  0  0  0  0
   15.6800  -17.2900    0.0000 C   0  0  0  0  0  0  0  0  0  0  0  0
   14.3500  -18.1300    0.0000 O   0  0  0  0  0  0  0  0  0  0  0  0
   20.3000  -15.8200    0.0000 C   0  0  0  0  0  0  0  0  0  0  0  0
   20.3000  -17.2200    0.0000 N   0  0  0  0  0  0  0  0  0  0  0  0
   21.4900  -17.9200    0.0000 C   0  0  0  0  0  0  0  0  0  0  0  0
   22.7500  -17.2200    0.0000 N   0  0  0  0  0  0  0  0  0  0  0  0
   22.7500  -15.8200    0.0000 C   0  0  0  0  0  0  0  0  0  0  0  0
   21.4900  -15.1200    0.0000 C   0  0  0  0  0  0  0  0  0  0  0  0
   21.4900  -19.3200    0.0000 O   0  0  0  0  0  0  0  0  0  0  0  0
   23.9400  -15.1200    0.0000 N   0  0  0  0  0  0  0  0  0  0  0  0
  1  2  1  0
  2  3  1  0
  3  4  2  0
  4  5  1  0
  5  6  1  0
  1  6  2  0
  1  7  1  0
  7  8  1  0
  8  9  1  0
  9 10  1  1
  2 10  1  0
  8 11  1  0
 11 12  1  0
 12 13  1  0
 13 14  1  0
  9 14  1  0
  7 15  2  0
  6 16  1  0
  5 17  2  0
  4 18  1  0
 18 19  1  0
 18 20  2  0
 19 21  1  0
 21 22  1  0
 22 23  2  0
 23 24  1  0
 24 25  2  0
 25 26  1  0
 26 27  2  0
 22 27  1  0
 27 28  1  0
 25 29  1  0
 11 30  1  6
 32 33  1  0
 33 34  1  0
 34 35  2  0
 35 36  1  0
 36 37  1  0
 32 37  2  0
 32 38  1  0
 38 39  1  0
 39 40  1  0
 40 41  1  1
 33 41  1  0
 39 42  1  0
 42 43  1  0
 43 44  1  0
 44 45  1  0
 40 45  1  0
 38 46  2  0
 37 47  1  0
 36 48  2  0
 35 49  1  0
 49 50  1  0
 49 51  2  0
 50 52  1  0
 52 53  1  0
 53 54  2  0
 54 55  1  0
 55 56  2  0
 56 57  1  0
 57 58  2  0
 53 58  1  0
 58 59  1  0
 56 60  1  0
 42 61  1  6
 62 63  1  0
 62 64  1  0
 63 65  1  0
 64 66  1  0
 65 67  1  6
 67 68  1  0
 65 66  1  0
 69 70  1  0
 70 71  1  0
 71 72  1  0
 72 73  2  0
 73 74  1  0
 69 74  2  0
 62 70  1  6
 71 75  2  0
 73 76  1  0
M  CHG  2  16  -1  31   1
M  END
