 
     RDKit          2D

109114  0  1  1  0  0  0  0  0999 V2000
   10.2929  -15.4754    0.0000 C   0  0  0  0  0  0  0  0  0  0  0  0
   10.2929  -16.8759    0.0000 N   0  0  0  0  0  0  0  0  0  0  0  0
   11.5533  -17.5762    0.0000 C   0  0  0  0  0  0  0  0  0  0  0  0
   12.7437  -16.8759    0.0000 C   0  0  0  0  0  0  0  0  0  0  0  0
   12.7437  -15.4754    0.0000 C   0  0  0  0  0  0  0  0  0  0  0  0
   11.5533  -14.7752    0.0000 C   0  0  0  0  0  0  0  0  0  0  0  0
   13.9341  -17.5762    0.0000 C   0  0  0  0  0  0  0  0  0  0  0  0
   15.1946  -16.8759    0.0000 C   0  0  0  0  0  0  0  0  0  0  0  0
   15.1946  -15.4754    0.0000 C   0  0  0  0  0  0  0  0  0  0  0  0
   13.9341  -14.7752    0.0000 C   0  0  0  0  0  0  0  0  0  0  0  0
   16.3850  -14.7752    0.0000 N   0  0  0  0  0  0  0  0  0  0  0  0
   17.5754  -15.4754    0.0000 C   0  0  0  0  0  0  0  0  0  0  0  0
   18.7658  -14.7752    0.0000 C   0  0  0  0  0  0  0  0  0  0  0  0
   19.9562  -15.4754    0.0000 C   0  0  0  0  0  0  0  0  0  0  0  0
   17.5754  -16.8759    0.0000 O   0  0  0  0  0  0  0  0  0  0  0  0
   18.7658  -13.3747    0.0000 C   0  0  0  0  0  0  0  0  0  0  0  0
   19.9562  -12.6745    0.0000 N   0  0  0  0  0  0  0  0  0  0  0  0
   19.9562  -16.8759    0.0000 C   0  0  0  0  0  0  0  0  0  0  0  0
   21.1466  -17.5762    0.0000 C   0  0  0  0  0  0  0  0  0  0  0  0
   22.4071  -16.8759    0.0000 C   0  0  0  0  0  0  0  0  0  0  0  0
   22.4071  -15.4754    0.0000 C   0  0  0  0  0  0  0  0  0  0  0  0
   21.1466  -14.7752    0.0000 C   0  0  0  0  0  0  0  0  0  0  0  0
   23.5975  -17.5762    0.0000 C   0  0  0  0  0  0  0  0  0  0  0  0
   24.7879  -16.8759    0.0000 O   0  0  0  0  0  0  0  0  0  0  0  0
   25.9783  -17.5762    0.0000 C   0  0  0  0  0  0  0  0  0  0  0  0
   27.1687  -16.8759    0.0000 C   0  0  0  0  0  0  0  0  0  0  0  0
   25.9783  -18.9766    0.0000 O   0  0  0  0  0  0  0  0  0  0  0  0
   28.4291  -17.5762    0.0000 C   0  0  0  0  0  0  0  0  0  0  0  0
   29.6195  -16.8759    0.0000 C   0  0  0  0  0  0  0  0  0  0  0  0
   29.6195  -15.4754    0.0000 C   0  0  0  0  0  0  0  0  0  0  0  0
   28.4291  -14.7752    0.0000 C   0  0  0  0  0  0  0  0  0  0  0  0
   27.1687  -15.4754    0.0000 C   0  0  0  0  0  0  0  0  0  0  0  0
   28.4291  -18.9766    0.0000 C   0  0  0  0  0  0  0  0  0  0  0  0
   30.8099  -14.7752    0.0000 C   0  0  0  0  0  0  0  0  0  0  0  0
   36.2600  -16.4500    0.0000 S   0  0  0  0  0  0  0  0  0  0  0  0
   34.8600  -16.4500    0.0000 O   0  0  0  0  0  0  0  0  0  0  0  0
   37.6600  -16.4500    0.0000 C   0  0  0  0  0  0  0  0  0  0  0  0
   36.2600  -15.0500    0.0000 O   0  0  0  0  0  0  0  0  0  0  0  0
   36.2600  -17.8500    0.0000 O   0  0  0  0  0  0  0  0  0  0  0  0
   36.2600  -16.4500    0.0000 S   0  0  0  0  0  0  0  0  0  0  0  0
   34.8600  -16.4500    0.0000 O   0  0  0  0  0  0  0  0  0  0  0  0
   37.6600  -16.4500    0.0000 C   0  0  0  0  0  0  0  0  0  0  0  0
   36.2600  -15.0500    0.0000 O   0  0  0  0  0  0  0  0  0  0  0  0
   36.2600  -17.8500    0.0000 O   0  0  0  0  0  0  0  0  0  0  0  0
    3.4300  -15.6800    0.0000 C   0  0  0  0  0  0  0  0  0  0  0  0
    3.4300  -17.0800    0.0000 N   0  0  0  0  0  0  0  0  0  0  0  0
    4.6424  -17.7800    0.0000 C   0  0  0  0  0  0  0  0  0  0  0  0
    5.8549  -17.0800    0.0000 C   0  0  0  0  0  0  0  0  0  0  0  0
    5.8549  -15.6800    0.0000 C   0  0  0  0  0  0  0  0  0  0  0  0
    4.6424  -14.9800    0.0000 C   0  0  0  0  0  0  0  0  0  0  0  0
    7.0673  -17.7800    0.0000 C   0  0  0  0  0  0  0  0  0  0  0  0
    8.2797  -17.0800    0.0000 C   0  0  0  0  0  0  0  0  0  0  0  0
    8.2797  -15.6800    0.0000 C   0  0  0  0  0  0  0  0  0  0  0  0
    7.0673  -14.9800    0.0000 C   0  0  0  0  0  0  0  0  0  0  0  0
    9.4773  -14.9885    0.0000 N   0  0  0  0  0  0  0  0  0  0  0  0
   10.6656  -15.6745    0.0000 C   0  0  0  0  0  0  0  0  0  0  0  0
   11.8564  -14.9869    0.0000 C   0  0  0  0  0  0  0  0  0  0  0  0
   13.0460  -15.6737    0.0000 C   0  0  0  0  0  0  0  0  0  0  0  0
   10.6657  -17.0798    0.0000 O   0  0  0  0  0  0  0  0  0  0  0  0
   11.8564  -13.5802    0.0000 C   0  0  0  0  0  0  0  0  0  0  0  0
   13.0490  -12.8915    0.0000 N   0  0  0  0  0  0  0  0  0  0  0  0
   13.0462  -17.0798    0.0000 C   0  0  0  0  0  0  0  0  0  0  0  0
   14.2586  -17.7797    0.0000 C   0  0  0  0  0  0  0  0  0  0  0  0
   15.4710  -17.0796    0.0000 C   0  0  0  0  0  0  0  0  0  0  0  0
   15.4709  -15.6735    0.0000 C   0  0  0  0  0  0  0  0  0  0  0  0
   14.2584  -14.9736    0.0000 C   0  0  0  0  0  0  0  0  0  0  0  0
   16.6829  -17.7791    0.0000 C   0  0  0  0  0  0  0  0  0  0  0  0
   17.8776  -17.0891    0.0000 O   0  0  0  0  0  0  0  0  0  0  0  0
   19.0655  -17.7747    0.0000 C   0  0  0  0  0  0  0  0  0  0  0  0
   20.2563  -17.0868    0.0000 C   0  0  0  0  0  0  0  0  0  0  0  0
   19.0658  -19.1798    0.0000 O   0  0  0  0  0  0  0  0  0  0  0  0
   21.4461  -17.7736    0.0000 C   0  0  0  0  0  0  0  0  0  0  0  0
   22.6585  -17.0734    0.0000 C   0  0  0  0  0  0  0  0  0  0  0  0
   22.6583  -15.6734    0.0000 C   0  0  0  0  0  0  0  0  0  0  0  0
   21.4685  -14.9867    0.0000 C   0  0  0  0  0  0  0  0  0  0  0  0
   20.2562  -15.6868    0.0000 C   0  0  0  0  0  0  0  0  0  0  0  0
   21.4464  -19.1798    0.0000 C   0  0  0  0  0  0  0  0  0  0  0  0
   23.8839  -14.9654    0.0000 C   0  0  0  0  0  0  0  0  0  0  0  0
   18.8346  -20.3048    0.0000 C   0  0  0  0  0  0  0  0  0  0  0  0
   18.8346  -21.7052    0.0000 C   0  0  0  0  0  0  0  0  0  0  0  0
   17.4343  -19.8847    0.0000 C   0  0  0  0  0  0  0  0  0  0  0  0
   20.0249  -19.6046    0.0000 C   0  0  0  0  0  0  0  0  0  0  0  0
   17.5043  -22.1253    0.0000 C   0  0  0  0  0  0  0  0  0  0  0  0
   20.0249  -22.4054    0.0000 C   0  0  0  0  0  0  0  0  0  0  0  0
   16.6641  -21.0050    0.0000 C   0  0  0  0  0  0  0  0  0  0  0  0
   21.2152  -20.3048    0.0000 C   0  0  0  0  0  0  0  0  0  0  0  0
   17.0842  -23.5256    0.0000 O   0  0  0  0  0  0  0  0  0  0  0  0
   21.2152  -21.7052    0.0000 C   0  0  0  0  0  0  0  0  0  0  0  0
   22.4755  -22.4054    0.0000 C   0  0  0  0  0  0  0  0  0  0  0  0
   23.6658  -21.7052    0.0000 C   0  0  0  0  0  0  0  0  0  0  0  0
   22.4755  -23.8057    0.0000 O   0  0  0  0  0  0  0  0  0  0  0  0
   24.9261  -22.4054    0.0000 C   0  0  0  0  0  0  0  0  0  0  0  0
   24.9261  -23.8057    0.0000 C   0  0  0  0  0  0  0  0  0  0  0  0
   26.1164  -24.5059    0.0000 C   0  0  0  0  0  0  0  0  0  0  0  0
   26.1164  -25.9061    0.0000 C   0  0  0  0  0  0  0  0  0  0  0  0
   24.9261  -26.6063    0.0000 C   0  0  0  0  0  0  0  0  0  0  0  0
   23.6658  -25.9061    0.0000 C   0  0  0  0  0  0  0  0  0  0  0  0
   23.6658  -24.5059    0.0000 C   0  0  0  0  0  0  0  0  0  0  0  0
   16.9442  -18.5544    0.0000 O   0  0  0  0  0  0  0  0  0  0  0  0
   22.6156  -20.3048    0.0000 C   0  0  0  0  0  0  0  0  0  0  0  0
   23.8059  -19.6046    0.0000 C   0  0  0  0  0  0  0  0  0  0  0  0
   24.9961  -20.3048    0.0000 C   0  0  0  0  0  0  0  0  0  0  0  0
   26.1864  -19.6046    0.0000 C   0  0  0  0  0  0  0  0  0  0  0  0
   27.3767  -20.3048    0.0000 C   0  0  0  0  0  0  0  0  0  0  0  0
   28.5670  -19.6046    0.0000 O   0  0  0  0  0  0  0  0  0  0  0  0
   29.7573  -20.3048    0.0000 C   0  0  0  0  0  0  0  0  0  0  0  0
   30.9476  -19.6046    0.0000 C   0  0  0  0  0  0  0  0  0  0  0  0
   27.3767  -21.7052    0.0000 O   0  0  0  0  0  0  0  0  0  0  0  0
   29.7573  -21.7052    0.0000 C   0  0  0  0  0  0  0  0  0  0  0  0
  1  2  2  0
  2  3  1  0
  3  4  2  0
  4  5  1  0
  5  6  2  0
  1  6  1  0
  4  7  1  0
  7  8  2  0
  8  9  1  0
  9 10  2  0
  5 10  1  0
  9 11  1  0
 11 12  1  0
 12 13  1  0
 13 14  1  0
 12 15  2  0
 13 16  1  6
 16 17  1  0
 14 18  2  0
 18 19  1  0
 19 20  2  0
 20 21  1  0
 21 22  2  0
 14 22  1  0
 20 23  1  0
 23 24  1  0
 24 25  1  0
 25 26  1  0
 25 27  2  0
 26 28  2  0
 28 29  1  0
 29 30  2  0
 30 31  1  0
 31 32  2  0
 26 32  1  0
 28 33  1  0
 30 34  1  0
 35 36  1  0
 35 37  1  0
 35 38  2  0
 35 39  2  0
 40 41  1  0
 40 42  1  0
 40 43  2  0
 40 44  2  0
 45 46  2  0
 46 47  1  0
 47 48  2  0
 48 49  1  0
 49 50  2  0
 45 50  1  0
 48 51  1  0
 51 52  2  0
 52 53  1  0
 53 54  2  0
 49 54  1  0
 53 55  1  0
 55 56  1  0
 56 57  1  0
 57 58  1  0
 56 59  2  0
 57 60  1  6
 60 61  1  0
 58 62  2  0
 62 63  1  0
 63 64  2  0
 64 65  1  0
 65 66  2  0
 58 66  1  0
 64 67  1  0
 67 68  1  0
 68 69  1  0
 69 70  1  0
 69 71  2  0
 70 72  2  0
 72 73  1  0
 73 74  2  0
 74 75  1  0
 75 76  2  0
 70 76  1  0
 72 77  1  0
 74 78  1  0
 90 92  1  0
 83 85  1  0
 92 93  1  0
 79 80  1  0
 79 81  1  0
 79 82  1  6
 80 83  1  0
 80 84  1  1
 93 94  2  0
 94 95  1  0
 95 96  2  0
 96 97  1  0
 97 98  2  0
 98 93  1  0
 81 85  1  0
 82 86  1  0
 83 87  1  6
 84 88  1  0
 88 89  1  0
 89 90  1  0
 89 91  1  6
 81 99  1  6
 86100  2  0
101102  1  0
101100  1  0
102103  1  0
103104  1  0
104105  1  0
105106  1  0
106107  1  0
104108  2  0
106109  1  0
M  STY  1   1 MUL
M  SLB  1   1   1
M  SCN  1   1 HT 
M  SAL   1 10  35  36  37  38  39  40  41  42  43  44
M  SPA   1  5  35  36  37  38  39
M  SDI   1  4   33.1100  -18.6900   33.1100  -14.2100
M  SDI   1  4   39.4100  -14.2100   39.4100  -18.6900
M  SMT   1 2
M  END
