44149770
     RDKit          2D

 48 50  0  0  1  0  0  0  0  0999 V2000
    4.4785    5.1200    0.0000 S   0  0  0  0  0  0  0  0  0  0  0  0
    3.9713   12.9049    0.0000 O   0  0  0  0  0  0  0  0  0  0  0  0
    5.6547   11.7381    0.0000 O   0  0  0  0  0  0  0  0  0  0  0  0
    7.5002   12.6268    0.0000 O   0  0  0  0  0  0  0  0  0  0  0  0
    0.8872   14.5860    0.0000 O   0  0  0  0  0  0  0  0  0  0  0  0
    1.2956   16.3864    0.0000 O   0  0  0  0  0  0  0  0  0  0  0  0
    5.5977   18.2089    0.0000 O   0  0  0  0  0  0  0  0  0  0  0  0
    5.4785    5.1200    0.0000 O   0  0  0  0  0  0  0  0  0  0  0  0
    3.4785    5.1200    0.0000 O   0  0  0  0  0  0  0  0  0  0  0  0
    3.6125    0.6200    0.0000 O   0  0  0  0  0  0  0  0  0  0  0  0
    5.3445    0.6200    0.0000 O   0  0  0  0  0  0  0  0  0  0  0  0
    4.0371   17.4574    0.0000 N   0  0  0  0  0  0  0  0  0  0  0  0
    4.4785    6.1200    0.0000 N   0  0  0  0  0  0  0  0  0  0  0  0
    4.4710   16.5564    0.0000 C   0  0  0  0  0  0  0  0  0  0  0  0
    5.4710   16.5564    0.0000 C   0  0  0  0  0  0  0  0  0  0  0  0
    6.0945   15.7746    0.0000 C   0  0  0  0  0  0  0  0  0  0  0  0
    3.8476   15.7746    0.0000 C   0  0  0  0  0  0  0  0  0  0  0  0
    5.8720   14.7996    0.0000 C   0  0  0  0  0  0  0  0  0  0  0  0
    4.9710   14.3658    0.0000 C   0  0  0  0  0  0  0  0  0  0  0  0
    4.0701   14.7996    0.0000 C   0  0  0  0  0  0  0  0  0  0  0  0
    4.8772   13.3284    0.0000 C   0  0  0  0  0  0  0  0  0  0  0  0
    6.7416   14.2262    0.0000 C   0  0  0  0  0  0  0  0  0  0  0  0
    2.9610   16.1942    0.0000 C   0  0  0  0  0  0  0  0  0  0  0  0
    3.4534   14.0370    0.0000 C   0  0  0  0  0  0  0  0  0  0  0  0
    5.7333   12.7350    0.0000 C   0  0  0  0  0  0  0  0  0  0  0  0
    6.6718   13.1869    0.0000 C   0  0  0  0  0  0  0  0  0  0  0  0
    2.0791   15.7651    0.0000 C   0  0  0  0  0  0  0  0  0  0  0  0
    4.6005   18.2836    0.0000 C   0  0  0  0  0  0  0  0  0  0  0  0
    2.4726   14.0409    0.0000 C   0  0  0  0  0  0  0  0  0  0  0  0
    1.8621   14.8086    0.0000 C   0  0  0  0  0  0  0  0  0  0  0  0
    5.3445    6.6200    0.0000 C   0  0  0  0  0  0  0  0  0  0  0  0
    3.6125    6.6200    0.0000 C   0  0  0  0  0  0  0  0  0  0  0  0
    4.1666   19.1846    0.0000 C   0  0  0  0  0  0  0  0  0  0  0  0
    5.3445    7.6200    0.0000 C   0  0  0  0  0  0  0  0  0  0  0  0
    3.6125    7.6200    0.0000 C   0  0  0  0  0  0  0  0  0  0  0  0
    3.8850   11.9087    0.0000 C   0  0  0  0  0  0  0  0  0  0  0  0
    4.4785    4.1200    0.0000 C   0  0  0  0  0  0  0  0  0  0  0  0
    6.4788   11.1716    0.0000 C   0  0  0  0  0  0  0  0  0  0  0  0
    8.3994   13.0641    0.0000 C   0  0  0  0  0  0  0  0  0  0  0  0
    6.2105    8.1200    0.0000 C   0  0  0  0  0  0  0  0  0  0  0  0
    2.7464    8.1200    0.0000 C   0  0  0  0  0  0  0  0  0  0  0  0
    3.6125    3.6200    0.0000 C   0  0  0  0  0  0  0  0  0  0  0  0
    5.3445    3.6200    0.0000 C   0  0  0  0  0  0  0  0  0  0  0  0
    0.5925   13.6305    0.0000 C   0  0  0  0  0  0  0  0  0  0  0  0
    3.6125    2.6200    0.0000 C   0  0  0  0  0  0  0  0  0  0  0  0
    5.3445    2.6200    0.0000 C   0  0  0  0  0  0  0  0  0  0  0  0
    4.4785    2.1200    0.0000 C   0  0  0  0  0  0  0  0  0  0  0  0
    4.4785    1.1200    0.0000 C   0  0  0  0  0  0  0  0  0  0  0  0
  1  8  2  0
  1  9  2  0
  1 13  1  0
  1 37  1  0
  2 21  1  0
  2 36  1  0
  3 25  1  0
  3 38  1  0
  4 26  1  0
  4 39  1  0
  5 30  1  0
  5 44  1  0
  6 27  2  0
  7 28  2  0
 10 48  1  0
 11 48  2  0
 14 12  1  1
 12 28  1  0
 13 31  1  0
 13 32  1  0
 14 15  1  0
 14 17  1  0
 15 16  1  0
 16 18  1  0
 17 20  1  0
 17 23  2  0
 18 19  2  0
 18 22  1  0
 19 20  1  0
 19 21  1  0
 20 24  2  0
 21 25  2  0
 22 26  2  0
 23 27  1  0
 24 29  1  0
 25 26  1  0
 27 30  1  0
 28 33  1  0
 29 30  2  0
 31 34  1  0
 32 35  1  0
 34 40  1  0
 35 41  1  0
 37 42  2  0
 37 43  1  0
 42 45  1  0
 43 46  2  0
 45 47  2  0
 46 47  1  0
 47 48  1  0
M  END
