 
     RDKit          2D

197200  0  0  1  0  0  0  0  0999 V2000
   20.8872  -17.1724    0.0000 N   0  0  0  0  0  0  0  0  0  0  0  0
   22.2190  -17.7331    0.0000 C   0  0  0  0  0  0  0  0  0  0  0  0
   21.0975  -15.7706    0.0000 C   0  0  0  0  0  0  0  0  0  0  0  0
   19.6957  -17.8733    0.0000 C   0  0  0  0  0  0  0  0  0  0  0  0
   23.1302  -16.6818    0.0000 C   0  0  0  0  0  0  0  0  0  0  0  0
   22.6395  -19.0649    0.0000 C   0  0  0  0  0  0  0  0  0  0  0  0
   22.4293  -15.4201    0.0000 C   0  0  0  0  0  0  0  0  0  0  0  0
   21.0274  -14.3687    0.0000 C   0  0  0  0  0  0  0  0  0  0  0  0
   18.5041  -17.1724    0.0000 C   0  0  0  0  0  0  0  0  0  0  0  0
   19.6957  -19.2751    0.0000 O   0  0  0  0  0  0  0  0  0  0  0  0
   24.5320  -16.9621    0.0000 C   0  0  0  0  0  0  0  0  0  0  0  0
   23.9713  -19.3452    0.0000 C   0  0  0  0  0  0  0  0  0  0  0  0
   22.2891  -13.6678    0.0000 O   0  0  0  0  0  0  0  0  0  0  0  0
   19.8359  -13.7379    0.0000 O   0  0  0  0  0  0  0  0  0  0  0  0
   17.2425  -17.8733    0.0000 N   0  0  0  0  0  0  0  0  0  0  0  0
   18.5041  -15.7706    0.0000 C   0  0  0  0  0  0  0  0  0  0  0  0
   24.9525  -18.2939    0.0000 C   0  0  0  0  0  0  0  0  0  0  0  0
   16.0509  -17.1724    0.0000 C   0  0  0  0  0  0  0  0  0  0  0  0
   16.0509  -15.7706    0.0000 C   0  0  0  0  0  0  0  0  0  0  0  0
   14.8594  -17.8733    0.0000 C   0  0  0  0  0  0  0  0  0  0  0  0
   17.2425  -15.0697    0.0000 O   0  0  0  0  0  0  0  0  0  0  0  0
   14.8594  -15.0697    0.0000 O   0  0  0  0  0  0  0  0  0  0  0  0
   13.5977  -17.1724    0.0000 C   0  0  0  0  0  0  0  0  0  0  0  0
   17.2425  -13.7379    0.0000 C   0  0  0  0  0  0  0  0  0  0  0  0
   12.4062  -17.8733    0.0000 C   0  0  0  0  0  0  0  0  0  0  0  0
   16.0509  -13.0370    0.0000 C   0  0  0  0  0  0  0  0  0  0  0  0
   30.5942  -16.4538    0.0000 C   0  0  0  0  0  0  0  0  0  0  0  0
   31.8545  -17.1540    0.0000 C   0  0  0  0  0  0  0  0  0  0  0  0
   29.4039  -17.0840    0.0000 C   0  0  0  0  0  0  0  0  0  0  0  0
   33.0448  -16.4538    0.0000 C   0  0  0  0  0  0  0  0  0  0  0  0
   28.2136  -16.3838    0.0000 C   0  0  0  0  0  0  0  0  0  0  0  0
   29.4039  -18.4843    0.0000 N   0  0  0  0  0  0  0  0  0  0  0  0
   34.2350  -17.1540    0.0000 N   0  0  0  0  0  0  0  0  0  0  0  0
   27.0233  -17.0140    0.0000 O   0  0  0  0  0  0  0  0  0  0  0  0
   28.2136  -14.9835    0.0000 O   0  0  0  0  0  0  0  0  0  0  0  0
   35.4953  -16.5238    0.0000 C   0  0  0  0  0  0  0  0  0  0  0  0
   36.7557  -17.2240    0.0000 N   0  0  0  0  0  0  0  0  0  0  0  0
   35.4953  -15.0535    0.0000 N   0  0  0  0  0  0  0  0  0  0  0  0
   36.2600  -19.6700    0.0000 N   0  0  0  0  0  0  0  0  0  0  0  0
   37.5900  -20.2300    0.0000 C   0  0  0  0  0  0  0  0  0  0  0  0
   36.4700  -18.2700    0.0000 C   0  0  0  0  0  0  0  0  0  0  0  0
   35.0700  -20.3700    0.0000 C   0  0  0  0  0  0  0  0  0  0  0  0
   38.5000  -19.1800    0.0000 C   0  0  0  0  0  0  0  0  0  0  0  0
   38.0100  -21.5600    0.0000 C   0  0  0  0  0  0  0  0  0  0  0  0
   37.8000  -17.9200    0.0000 C   0  0  0  0  0  0  0  0  0  0  0  0
   36.4000  -16.8700    0.0000 C   0  0  0  0  0  0  0  0  0  0  0  0
   33.8800  -19.6700    0.0000 C   0  0  0  0  0  0  0  0  0  0  0  0
   35.0700  -21.7700    0.0000 O   0  0  0  0  0  0  0  0  0  0  0  0
   39.9000  -19.4600    0.0000 C   0  0  0  0  0  0  0  0  0  0  0  0
   39.3400  -21.8400    0.0000 C   0  0  0  0  0  0  0  0  0  0  0  0
   37.6600  -16.1000    0.0000 O   0  0  0  0  0  0  0  0  0  0  0  0
   35.2100  -16.1700    0.0000 O   0  0  0  0  0  0  0  0  0  0  0  0
   32.6200  -20.3700    0.0000 N   0  0  0  0  0  0  0  0  0  0  0  0
   33.8800  -18.2700    0.0000 C   0  0  0  0  0  0  0  0  0  0  0  0
   40.3200  -20.7900    0.0000 C   0  0  0  0  0  0  0  0  0  0  0  0
   31.4300  -19.6700    0.0000 C   0  0  0  0  0  0  0  0  0  0  0  0
   31.4300  -18.2700    0.0000 C   0  0  0  0  0  0  0  0  0  0  0  0
   30.2400  -20.3700    0.0000 C   0  0  0  0  0  0  0  0  0  0  0  0
   32.6200  -17.5700    0.0000 O   0  0  0  0  0  0  0  0  0  0  0  0
   30.2400  -17.5700    0.0000 O   0  0  0  0  0  0  0  0  0  0  0  0
   28.9800  -19.6700    0.0000 C   0  0  0  0  0  0  0  0  0  0  0  0
   32.6200  -16.1700    0.0000 C   0  0  0  0  0  0  0  0  0  0  0  0
   27.7900  -20.3700    0.0000 C   0  0  0  0  0  0  0  0  0  0  0  0
   31.4300  -15.4700    0.0000 C   0  0  0  0  0  0  0  0  0  0  0  0
   24.1851  -20.1780    0.0000 N   0  0  0  0  0  0  0  0  0  0  0  0
   25.4694  -20.7383    0.0000 C   0  0  0  0  0  0  0  0  0  0  0  0
   24.3427  -18.7826    0.0000 C   0  0  0  0  0  0  0  0  0  0  0  0
   22.9767  -20.8843    0.0000 C   0  0  0  0  0  0  0  0  0  0  0  0
   26.4093  -19.6992    0.0000 C   0  0  0  0  0  0  0  0  0  0  0  0
   25.9015  -22.0694    0.0000 C   0  0  0  0  0  0  0  0  0  0  0  0
   25.7146  -18.4908    0.0000 C   0  0  0  0  0  0  0  0  0  0  0  0
   24.3311  -17.3758    0.0000 C   0  0  0  0  0  0  0  0  0  0  0  0
   21.7623  -20.1837    0.0000 C   0  0  0  0  0  0  0  0  0  0  0  0
   22.9825  -22.2854    0.0000 O   0  0  0  0  0  0  0  0  0  0  0  0
   27.7812  -19.9970    0.0000 C   0  0  0  0  0  0  0  0  0  0  0  0
   27.2733  -22.3671    0.0000 C   0  0  0  0  0  0  0  0  0  0  0  0
   25.5336  -16.6636    0.0000 O   0  0  0  0  0  0  0  0  0  0  0  0
   23.1109  -16.6869    0.0000 O   0  0  0  0  0  0  0  0  0  0  0  0
   20.5481  -20.8843    0.0000 N   0  0  0  0  0  0  0  0  0  0  0  0
   21.7683  -18.7826    0.0000 C   0  0  0  0  0  0  0  0  0  0  0  0
   28.2073  -21.3280    0.0000 C   0  0  0  0  0  0  0  0  0  0  0  0
   19.3397  -20.1897    0.0000 C   0  0  0  0  0  0  0  0  0  0  0  0
   19.3340  -18.7886    0.0000 C   0  0  0  0  0  0  0  0  0  0  0  0
   18.1255  -20.8960    0.0000 C   0  0  0  0  0  0  0  0  0  0  0  0
   20.5481  -18.0880    0.0000 O   0  0  0  0  0  0  0  0  0  0  0  0
   18.1138  -18.0938    0.0000 O   0  0  0  0  0  0  0  0  0  0  0  0
   16.9112  -20.2071    0.0000 C   0  0  0  0  0  0  0  0  0  0  0  0
   20.6122  -16.6869    0.0000 C   0  0  0  0  0  0  0  0  0  0  0  0
   15.7027  -20.8960    0.0000 C   0  0  0  0  0  0  0  0  0  0  0  0
   19.3280  -15.9923    0.0000 C   0  0  0  0  0  0  0  0  0  0  0  0
   32.0427  -20.0612    0.0000 C   0  0  0  0  0  0  0  0  0  0  0  0
   30.6475  -20.0612    0.0000 C   0  0  0  0  0  0  0  0  0  0  0  0
   33.4438  -20.0612    0.0000 C   0  0  0  0  0  0  0  0  0  0  0  0
   32.0369  -21.4565    0.0000 C   0  0  0  0  0  0  0  0  0  0  0  0
   32.0544  -18.6601    0.0000 N   0  0  0  0  0  0  0  0  0  0  0  0
   29.5695  -18.6304    0.0000 C   0  0  0  0  0  0  0  0  0  0  0  0
   28.3142  -19.3278    0.0000 C   0  0  0  0  0  0  0  0  0  0  0  0
   30.7550  -19.3278    0.0000 C   0  0  0  0  0  0  0  0  0  0  0  0
   29.5698  -17.2357    0.0000 S   0  0  0  0  0  0  0  0  0  0  0  0
   28.3142  -20.6528    0.0000 C   0  0  0  0  0  0  0  0  0  0  0  0
   30.7550  -20.6528    0.0000 C   0  0  0  0  0  0  0  0  0  0  0  0
   29.5698  -15.8409    0.0000 O   0  0  0  0  0  0  0  0  0  0  0  0
   28.1750  -17.2357    0.0000 O   0  0  0  0  0  0  0  0  0  0  0  0
   30.9645  -17.2357    0.0000 O   0  0  0  0  0  0  0  0  0  0  0  0
   29.5695  -21.3502    0.0000 C   0  0  0  0  0  0  0  0  0  0  0  0
   19.3368  -16.0762    0.0000 C   0  0  0  0  0  0  0  0  0  0  0  0
   20.5198  -15.3803    0.0000 C   0  0  0  0  0  0  0  0  0  0  0  0
   18.1539  -15.3803    0.0000 C   0  0  0  0  0  0  0  0  0  0  0  0
   19.3368  -18.4421    0.0000 C   0  0  0  0  0  0  0  0  0  0  0  0
   20.5198  -13.9886    0.0000 C   0  0  0  0  0  0  0  0  0  0  0  0
   21.7028  -16.0762    0.0000 C   0  0  0  0  0  0  0  0  0  0  0  0
   18.1539  -13.9886    0.0000 C   0  0  0  0  0  0  0  0  0  0  0  0
   16.9709  -16.0066    0.0000 C   0  0  0  0  0  0  0  0  0  0  0  0
   20.5198  -19.1380    0.0000 C   0  0  0  0  0  0  0  0  0  0  0  0
   18.1539  -19.1380    0.0000 C   0  0  0  0  0  0  0  0  0  0  0  0
   19.3368  -13.2927    0.0000 N   0  0  0  0  0  0  0  0  0  0  0  0
   21.7028  -13.2927    0.0000 C   0  0  0  0  0  0  0  0  0  0  0  0
   22.8858  -15.3803    0.0000 O   0  0  0  0  0  0  0  0  0  0  0  0
   21.7028  -17.3983    0.0000 O   0  0  0  0  0  0  0  0  0  0  0  0
   16.9709  -13.2927    0.0000 C   0  0  0  0  0  0  0  0  0  0  0  0
   15.7879  -15.3803    0.0000 O   0  0  0  0  0  0  0  0  0  0  0  0
   16.9709  -17.3983    0.0000 O   0  0  0  0  0  0  0  0  0  0  0  0
   20.5198  -20.4601    0.0000 C   0  0  0  0  0  0  0  0  0  0  0  0
   21.7028  -18.4421    0.0000 Cl  0  0  0  0  0  0  0  0  0  0  0  0
   18.1539  -20.4601    0.0000 C   0  0  0  0  0  0  0  0  0  0  0  0
   22.8858  -13.9886    0.0000 O   0  0  0  0  0  0  0  0  0  0  0  0
   24.0687  -16.0762    0.0000 C   0  0  0  0  0  0  0  0  0  0  0  0
   14.6049  -16.0066    0.0000 C   0  0  0  0  0  0  0  0  0  0  0  0
   19.3368  -21.1560    0.0000 C   0  0  0  0  0  0  0  0  0  0  0  0
   24.0687  -13.2927    0.0000 C   0  0  0  0  0  0  0  0  0  0  0  0
   25.2517  -15.3803    0.0000 C   0  0  0  0  0  0  0  0  0  0  0  0
   25.2517  -13.9886    0.0000 C   0  0  0  0  0  0  0  0  0  0  0  0
   26.4347  -13.2927    0.0000 N   0  0  0  0  0  0  0  0  0  0  0  0
   22.9600  -16.8000    0.0000 C   0  0  0  0  0  0  0  0  0  0  0  0
   24.1500  -16.1000    0.0000 C   0  0  0  0  0  0  0  0  0  0  0  0
   21.7700  -16.1000    0.0000 C   0  0  0  0  0  0  0  0  0  0  0  0
   22.9600  -19.1800    0.0000 C   0  0  0  0  0  0  0  0  0  0  0  0
   24.1500  -14.7000    0.0000 C   0  0  0  0  0  0  0  0  0  0  0  0
   25.3400  -16.8000    0.0000 C   0  0  0  0  0  0  0  0  0  0  0  0
   21.7700  -14.7000    0.0000 C   0  0  0  0  0  0  0  0  0  0  0  0
   20.5800  -16.7300    0.0000 C   0  0  0  0  0  0  0  0  0  0  0  0
   24.1500  -19.8800    0.0000 C   0  0  0  0  0  0  0  0  0  0  0  0
   21.7700  -19.8800    0.0000 C   0  0  0  0  0  0  0  0  0  0  0  0
   22.9600  -14.0000    0.0000 N   0  0  0  0  0  0  0  0  0  0  0  0
   25.3400  -14.0000    0.0000 C   0  0  0  0  0  0  0  0  0  0  0  0
   26.5300  -16.1000    0.0000 O   0  0  0  0  0  0  0  0  0  0  0  0
   25.3400  -18.1300    0.0000 O   0  0  0  0  0  0  0  0  0  0  0  0
   20.5800  -14.0000    0.0000 C   0  0  0  0  0  0  0  0  0  0  0  0
   19.3900  -16.1000    0.0000 O   0  0  0  0  0  0  0  0  0  0  0  0
   20.5800  -18.1300    0.0000 O   0  0  0  0  0  0  0  0  0  0  0  0
   24.1500  -21.2100    0.0000 C   0  0  0  0  0  0  0  0  0  0  0  0
   25.3400  -19.1800    0.0000 Cl  0  0  0  0  0  0  0  0  0  0  0  0
   21.7700  -21.2100    0.0000 C   0  0  0  0  0  0  0  0  0  0  0  0
   26.5300  -14.7000    0.0000 O   0  0  0  0  0  0  0  0  0  0  0  0
   27.7200  -16.8000    0.0000 C   0  0  0  0  0  0  0  0  0  0  0  0
   18.2000  -16.7300    0.0000 C   0  0  0  0  0  0  0  0  0  0  0  0
   22.9600  -21.9100    0.0000 C   0  0  0  0  0  0  0  0  0  0  0  0
   27.7200  -14.0000    0.0000 C   0  0  0  0  0  0  0  0  0  0  0  0
   28.9100  -16.1000    0.0000 C   0  0  0  0  0  0  0  0  0  0  0  0
   28.9100  -14.7000    0.0000 C   0  0  0  0  0  0  0  0  0  0  0  0
   30.1000  -14.0000    0.0000 N   0  0  0  0  0  0  0  0  0  0  0  0
   28.6629  -16.1156    0.0000 C   0  0  0  0  0  0  0  0  0  0  0  0
   29.3546  -17.3137    0.0000 O   0  0  0  0  0  0  0  0  0  0  0  0
   31.2223  -17.3137    0.0000 O   0  0  0  0  0  0  0  0  0  0  0  0
   31.9140  -16.1156    0.0000 C   0  0  0  0  0  0  0  0  0  0  0  0
   31.2223  -14.9175    0.0000 C   0  0  0  0  0  0  0  0  0  0  0  0
   29.3546  -14.9175    0.0000 C   0  0  0  0  0  0  0  0  0  0  0  0
   33.2975  -16.1156    0.0000 O   0  0  0  0  0  0  0  0  0  0  0  0
   27.2794  -16.1156    0.0000 O   0  0  0  0  0  0  0  0  0  0  0  0
   21.0168  -13.2762    0.0000 C   0  0  0  0  0  0  0  0  0  0  0  0
   22.1998  -12.5803    0.0000 C   0  0  0  0  0  0  0  0  0  0  0  0
   19.8339  -12.5803    0.0000 C   0  0  0  0  0  0  0  0  0  0  0  0
   21.0168  -15.6421    0.0000 C   0  0  0  0  0  0  0  0  0  0  0  0
   22.1998  -11.1886    0.0000 C   0  0  0  0  0  0  0  0  0  0  0  0
   23.3828  -13.2762    0.0000 C   0  0  0  0  0  0  0  0  0  0  0  0
   19.8339  -11.1886    0.0000 C   0  0  0  0  0  0  0  0  0  0  0  0
   18.6509  -13.2066    0.0000 C   0  0  0  0  0  0  0  0  0  0  0  0
   22.1998  -16.3380    0.0000 C   0  0  0  0  0  0  0  0  0  0  0  0
   19.8339  -16.3380    0.0000 C   0  0  0  0  0  0  0  0  0  0  0  0
   21.0168  -10.4927    0.0000 N   0  0  0  0  0  0  0  0  0  0  0  0
   23.3828  -10.4927    0.0000 C   0  0  0  0  0  0  0  0  0  0  0  0
   24.5658  -12.5803    0.0000 O   0  0  0  0  0  0  0  0  0  0  0  0
   23.3828  -14.5983    0.0000 O   0  0  0  0  0  0  0  0  0  0  0  0
   18.6509  -10.4927    0.0000 C   0  0  0  0  0  0  0  0  0  0  0  0
   17.4679  -12.5803    0.0000 O   0  0  0  0  0  0  0  0  0  0  0  0
   18.6509  -14.5983    0.0000 O   0  0  0  0  0  0  0  0  0  0  0  0
   22.1998  -17.6601    0.0000 C   0  0  0  0  0  0  0  0  0  0  0  0
   23.3828  -15.6421    0.0000 Cl  0  0  0  0  0  0  0  0  0  0  0  0
   19.8339  -17.6601    0.0000 C   0  0  0  0  0  0  0  0  0  0  0  0
   24.5658  -11.1886    0.0000 O   0  0  0  0  0  0  0  0  0  0  0  0
   25.7487  -13.2762    0.0000 C   0  0  0  0  0  0  0  0  0  0  0  0
   16.2849  -13.2066    0.0000 C   0  0  0  0  0  0  0  0  0  0  0  0
   21.0168  -18.3560    0.0000 C   0  0  0  0  0  0  0  0  0  0  0  0
   25.7487  -10.4927    0.0000 C   0  0  0  0  0  0  0  0  0  0  0  0
   26.9317  -12.5803    0.0000 C   0  0  0  0  0  0  0  0  0  0  0  0
   26.9317  -11.1886    0.0000 C   0  0  0  0  0  0  0  0  0  0  0  0
   28.1147  -10.4927    0.0000 N   0  0  0  0  0  0  0  0  0  0  0  0
  1  2  1  0
  1  3  1  0
  1  4  1  0
  2  5  1  0
  2  6  1  6
  3  7  1  0
  3  8  1  6
  4  9  1  0
  4 10  2  0
  5 11  1  6
  6 12  1  0
  8 13  1  0
  8 14  2  0
  9 15  1  0
  9 16  1  1
 11 17  1  0
 15 18  1  0
 18 19  1  0
 18 20  1  1
 19 21  1  0
 19 22  2  0
 20 23  1  0
 21 24  1  0
 23 25  1  0
 24 26  1  0
  5  7  1  0
 12 17  1  0
 27 28  1  0
 27 29  1  0
 28 30  1  0
 29 31  1  0
 29 32  1  6
 30 33  1  0
 31 34  1  0
 31 35  2  0
 33 36  1  0
 36 37  1  0
 36 38  2  0
 39 40  1  0
 39 41  1  0
 39 42  1  0
 40 43  1  0
 40 44  1  6
 41 45  1  0
 41 46  1  6
 42 47  1  0
 42 48  2  0
 43 49  1  6
 44 50  1  0
 46 51  1  0
 46 52  2  0
 47 53  1  0
 47 54  1  1
 49 55  1  0
 53 56  1  0
 56 57  1  0
 56 58  1  1
 57 59  1  0
 57 60  2  0
 58 61  1  0
 59 62  1  0
 61 63  1  0
 62 64  1  0
 43 45  1  0
 50 55  1  0
 65 66  1  0
 65 67  1  0
 65 68  1  0
 66 69  1  0
 66 70  1  6
 67 71  1  0
 67 72  1  6
 68 73  1  0
 68 74  2  0
 69 75  1  6
 70 76  1  0
 72 77  1  0
 72 78  2  0
 73 79  1  0
 73 80  1  1
 75 81  1  0
 79 82  1  0
 82 83  1  0
 82 84  1  1
 83 85  1  0
 83 86  2  0
 84 87  1  0
 85 88  1  0
 87 89  1  0
 88 90  1  0
 69 71  1  0
 76 81  1  0
 91 92  1  0
 91 93  1  0
 91 94  1  0
 91 95  1  0
 96 97  2  0
 96 98  1  0
 96 99  1  0
 97100  1  0
 98101  2  0
 99102  1  0
 99103  2  0
 99104  2  0
100105  2  0
101105  1  0
106107  1  0
106108  1  0
106109  1  0
107110  2  0
107111  1  0
108112  2  0
108113  1  0
109114  2  0
109115  1  0
110116  1  0
110117  1  0
111118  1  0
111119  2  0
112120  1  0
113121  1  0
113122  2  0
114123  1  0
114124  1  0
115125  2  0
117126  1  0
118127  1  0
121128  1  0
123129  2  0
126130  1  0
127131  1  0
130132  1  0
132133  1  0
112116  1  0
125129  1  0
134135  1  0
134136  1  0
134137  1  0
135138  2  0
135139  1  0
136140  2  0
136141  1  0
137142  2  0
137143  1  0
138144  1  0
138145  1  0
139146  1  0
139147  2  0
140148  1  0
141149  1  0
141150  2  0
142151  1  0
142152  1  0
143153  2  0
145154  1  0
146155  1  0
149156  1  0
151157  2  0
154158  1  0
155159  1  0
158160  1  0
160161  1  0
140144  1  0
153157  1  0
162163  2  0
164165  1  0
165166  1  0
166167  2  0
162167  1  0
165168  2  0
162169  1  0
170171  1  0
170172  1  0
170173  1  0
171174  2  0
171175  1  0
172176  2  0
172177  1  0
173178  2  0
173179  1  0
174180  1  0
174181  1  0
175182  1  0
175183  2  0
176184  1  0
177185  1  0
177186  2  0
178187  1  0
178188  1  0
179189  2  0
181190  1  0
182191  1  0
185192  1  0
187193  2  0
190194  1  0
191195  1  0
194196  1  0
196197  1  0
176180  1  0
189193  1  0
M  END
