353261-66-2.mol
     RDKit          2D

 21 23  0  0  0  0  0  0  0  0999 V2000
    1.0333   -1.3357    0.0000 N   0  0  0  0  0  0  0  0  0  0  0  0
    0.2184   -1.2067    0.0000 C   0  0  0  0  0  0  0  0  0  0  0  0
    0.0893   -0.3918    0.0000 N   0  0  0  0  0  0  0  0  0  0  0  0
    0.8244   -0.0173    0.0000 C   0  0  0  0  0  0  0  0  0  0  0  0
    1.0380    0.7796    0.0000 N   0  0  0  0  0  0  0  0  0  0  0  0
    1.8348    0.9931    0.0000 C   0  0  0  0  0  0  0  0  0  0  0  0
    2.4182    0.4098    0.0000 N   0  0  0  0  0  0  0  0  0  0  0  0
    2.2047   -0.3871    0.0000 C   0  0  0  0  0  0  0  0  0  0  0  0
    1.4078   -0.6006    0.0000 C   0  0  0  0  0  0  0  0  0  0  0  0
    2.7880   -0.9705    0.0000 O   0  0  0  0  0  0  0  0  0  0  0  0
   -0.7748    0.7976    0.0000 O   0  0  0  0  0  0  0  0  0  0  0  0
   -0.6457   -0.0173    0.0000 C   0  0  0  0  0  0  0  0  0  0  0  0
   -1.3808   -0.3918    0.0000 C   0  0  0  0  0  0  0  0  0  0  0  0
   -1.9642    0.1915    0.0000 C   0  0  0  0  0  0  0  0  0  0  0  0
   -1.5896    0.9266    0.0000 C   0  0  0  0  0  0  0  0  0  0  0  0
   -1.9642    1.6617    0.0000 C   0  0  0  0  0  0  0  0  0  0  0  0
   -2.7880    1.7049    0.0000 O   0  0  0  0  0  0  0  0  0  0  0  0
   -2.7790    0.0625    0.0000 O   0  0  0  0  0  0  0  0  0  0  0  0
   -1.5099   -1.2067    0.0000 O   0  0  0  0  0  0  0  0  0  0  0  0
   -0.3650   -1.7900    0.0000 N   0  0  0  0  0  0  0  0  0  0  0  0
    2.0484    1.7900    0.0000 N   0  0  0  0  0  0  0  0  0  0  0  0
  1  2  2  0
  2  3  1  0
  3  4  1  0
  4  5  1  0
  5  6  1  0
  6  7  2  0
  7  8  1  0
  8  9  1  0
  1  9  1  0
  4  9  2  0
  8 10  2  0
 11 12  1  0
 12 13  1  0
 13 14  1  0
 14 15  1  0
 11 15  1  0
 16 17  1  0
 15 16  1  1
 14 18  1  6
 13 19  1  6
 12  3  1  1
  2 20  1  0
  6 21  1  0
M  END
