154562176
     RDKit          2D

465514  0  0  1  0  0  0  0  0999 V2000
   17.6031   14.3115    0.0000 P   0  0  0  0  0  0  0  0  0  0  0  0
   21.2530   11.5405    0.0000 P   0  0  0  0  0  0  0  0  0  0  0  0
   12.6641   15.9258    0.0000 P   0  0  0  0  0  0  0  0  0  0  0  0
   23.9285   15.9129    0.0000 P   0  0  0  0  0  0  0  0  0  0  0  0
    8.7966   12.4555    0.0000 P   0  0  0  0  0  0  0  0  0  0  0  0
   20.1334   -6.9172    0.0000 P   0  0  0  0  0  0  0  0  0  0  0  0
    9.8681    7.3711    0.0000 P   0  0  0  0  0  0  0  0  0  0  0  0
   27.1347   20.0020    0.0000 P   0  0  0  0  0  0  0  0  0  0  0  0
   21.2049  -12.0017    0.0000 P   0  0  0  0  0  0  0  0  0  0  0  0
   21.7476   -1.9782    0.0000 P   0  0  0  0  0  0  0  0  0  0  0  0
   18.2774    1.8893    0.0000 P   0  0  0  0  0  0  0  0  0  0  0  0
   14.8072    5.7568    0.0000 P   0  0  0  0  0  0  0  0  0  0  0  0
   32.2094   21.0294    0.0000 P   0  0  0  0  0  0  0  0  0  0  0  0
   17.3374  -15.4719    0.0000 P   0  0  0  0  0  0  0  0  0  0  0  0
   15.7231  -20.4110    0.0000 P   0  0  0  0  0  0  0  0  0  0  0  0
   34.8849   25.4018    0.0000 P   0  0  0  0  0  0  0  0  0  0  0  0
   11.7954  -22.7717    0.0000 P   0  0  0  0  0  0  0  0  0  0  0  0
    7.9279  -26.2419    0.0000 P   0  0  0  0  0  0  0  0  0  0  0  0
   30.7959   28.6079    0.0000 P   0  0  0  0  0  0  0  0  0  0  0  0
    8.9995  -31.3264    0.0000 P   0  0  0  0  0  0  0  0  0  0  0  0
   18.3175   10.9219    0.0000 O   0  0  0  0  0  0  0  0  0  0  0  0
   15.5996   16.5444    0.0000 O   0  0  0  0  0  0  0  0  0  0  0  0
    9.7286   15.3071    0.0000 O   0  0  0  0  0  0  0  0  0  0  0  0
   23.5059   12.9429    0.0000 O   0  0  0  0  0  0  0  0  0  0  0  0
    7.8646    9.6040    0.0000 O   0  0  0  0  0  0  0  0  0  0  0  0
   18.2710   13.5672    0.0000 O   0  0  0  0  0  0  0  0  0  0  0  0
   13.6426   16.1320    0.0000 O   0  0  0  0  0  0  0  0  0  0  0  0
   21.0468   12.5190    0.0000 O   0  0  0  0  0  0  0  0  0  0  0  0
   24.3512   18.8830    0.0000 O   0  0  0  0  0  0  0  0  0  0  0  0
   22.1369   -9.1501    0.0000 O   0  0  0  0  0  0  0  0  0  0  0  0
    9.1072   13.4061    0.0000 O   0  0  0  0  0  0  0  0  0  0  0  0
   24.0694   16.9030    0.0000 O   0  0  0  0  0  0  0  0  0  0  0  0
   11.8717    5.1382    0.0000 O   0  0  0  0  0  0  0  0  0  0  0  0
   20.2729  -14.8533    0.0000 O   0  0  0  0  0  0  0  0  0  0  0  0
   22.3663   -4.9137    0.0000 O   0  0  0  0  0  0  0  0  0  0  0  0
   30.3584   18.6685    0.0000 O   0  0  0  0  0  0  0  0  0  0  0  0
    9.2003    8.1154    0.0000 O   0  0  0  0  0  0  0  0  0  0  0  0
   21.1290    0.9573    0.0000 O   0  0  0  0  0  0  0  0  0  0  0  0
   21.5156  -11.0512    0.0000 O   0  0  0  0  0  0  0  0  0  0  0  0
   20.8777   -6.2494    0.0000 O   0  0  0  0  0  0  0  0  0  0  0  0
   28.0168   19.5310    0.0000 O   0  0  0  0  0  0  0  0  0  0  0  0
   15.4258    2.8213    0.0000 O   0  0  0  0  0  0  0  0  0  0  0  0
   21.5414   -0.9997    0.0000 O   0  0  0  0  0  0  0  0  0  0  0  0
   13.8287    5.5506    0.0000 O   0  0  0  0  0  0  0  0  0  0  0  0
   17.3269    2.2000    0.0000 O   0  0  0  0  0  0  0  0  0  0  0  0
   18.3159  -15.2657    0.0000 O   0  0  0  0  0  0  0  0  0  0  0  0
   17.9561  -18.4074    0.0000 O   0  0  0  0  0  0  0  0  0  0  0  0
   32.0033   22.0079    0.0000 O   0  0  0  0  0  0  0  0  0  0  0  0
   34.4623   22.4317    0.0000 O   0  0  0  0  0  0  0  0  0  0  0  0
   13.4902  -22.4145    0.0000 O   0  0  0  0  0  0  0  0  0  0  0  0
   16.4675  -19.7431    0.0000 O   0  0  0  0  0  0  0  0  0  0  0  0
   16.8588   13.6437    0.0000 O   0  0  0  0  0  0  0  0  0  0  0  0
   21.4592   10.5620    0.0000 O   0  0  0  0  0  0  0  0  0  0  0  0
   12.8703   14.9473    0.0000 O   0  0  0  0  0  0  0  0  0  0  0  0
   22.9385   16.0538    0.0000 O   0  0  0  0  0  0  0  0  0  0  0  0
    9.7471   12.1449    0.0000 O   0  0  0  0  0  0  0  0  0  0  0  0
    8.8599  -23.3903    0.0000 O   0  0  0  0  0  0  0  0  0  0  0  0
   11.5892  -21.7932    0.0000 O   0  0  0  0  0  0  0  0  0  0  0  0
   33.8949   25.5426    0.0000 O   0  0  0  0  0  0  0  0  0  0  0  0
   19.4655   -6.1729    0.0000 O   0  0  0  0  0  0  0  0  0  0  0  0
   10.6124    8.0389    0.0000 O   0  0  0  0  0  0  0  0  0  0  0  0
   26.7617   20.9298    0.0000 O   0  0  0  0  0  0  0  0  0  0  0  0
   20.2544  -11.6910    0.0000 O   0  0  0  0  0  0  0  0  0  0  0  0
   20.7691   -2.1844    0.0000 O   0  0  0  0  0  0  0  0  0  0  0  0
   18.5881    2.8399    0.0000 O   0  0  0  0  0  0  0  0  0  0  0  0
   14.6010    6.7353    0.0000 O   0  0  0  0  0  0  0  0  0  0  0  0
   31.9149   25.8244    0.0000 O   0  0  0  0  0  0  0  0  0  0  0  0
   32.9964   20.4123    0.0000 O   0  0  0  0  0  0  0  0  0  0  0  0
    8.2386  -25.2914    0.0000 O   0  0  0  0  0  0  0  0  0  0  0  0
   17.1312  -14.4934    0.0000 O   0  0  0  0  0  0  0  0  0  0  0  0
    6.9959  -29.0934    0.0000 O   0  0  0  0  0  0  0  0  0  0  0  0
   15.0553  -19.6667    0.0000 O   0  0  0  0  0  0  0  0  0  0  0  0
   35.8750   25.2609    0.0000 O   0  0  0  0  0  0  0  0  0  0  0  0
   12.7739  -22.5655    0.0000 O   0  0  0  0  0  0  0  0  0  0  0  0
    8.3316  -30.5821    0.0000 O   0  0  0  0  0  0  0  0  0  0  0  0
   31.7237   28.9809    0.0000 O   0  0  0  0  0  0  0  0  0  0  0  0
    8.8784  -26.5525    0.0000 O   0  0  0  0  0  0  0  0  0  0  0  0
   22.6364   19.1270    0.0000 O   0  0  0  0  0  0  0  0  0  0  0  0
   11.0030  -33.5593    0.0000 O   0  0  0  0  0  0  0  0  0  0  0  0
   29.8681   28.2349    0.0000 O   0  0  0  0  0  0  0  0  0  0  0  0
   12.2288    3.4434    0.0000 O   0  0  0  0  0  0  0  0  0  0  0  0
   23.5230   -6.2029    0.0000 O   0  0  0  0  0  0  0  0  0  0  0  0
   20.5103    3.8929    0.0000 O   0  0  0  0  0  0  0  0  0  0  0  0
   12.5743    3.7533    0.0000 O   0  0  0  0  0  0  0  0  0  0  0  0
   32.9333   31.3340    0.0000 O   0  0  0  0  0  0  0  0  0  0  0  0
   20.1890  -16.4039    0.0000 O   0  0  0  0  0  0  0  0  0  0  0  0
   35.1083   20.8246    0.0000 O   0  0  0  0  0  0  0  0  0  0  0  0
    9.7438  -30.6585    0.0000 O   0  0  0  0  0  0  0  0  0  0  0  0
   16.8624    6.4223    0.0000 O   0  0  0  0  0  0  0  0  0  0  0  0
   28.2869   11.3764    0.0000 O   0  0  0  0  0  0  0  0  0  0  0  0
   21.3443   22.3411    0.0000 O   0  0  0  0  0  0  0  0  0  0  0  0
   16.3418  -23.3465    0.0000 O   0  0  0  0  0  0  0  0  0  0  0  0
    3.2342    8.6432    0.0000 O   0  0  0  0  0  0  0  0  0  0  0  0
    9.6505    1.1299    0.0000 O   0  0  0  0  0  0  0  0  0  0  0  0
    9.7919  -20.5388    0.0000 O   0  0  0  0  0  0  0  0  0  0  0  0
   26.9126   -5.4885    0.0000 O   0  0  0  0  0  0  0  0  0  0  0  0
   26.7612   -8.1605    0.0000 O   0  0  0  0  0  0  0  0  0  0  0  0
   23.8999    4.6072    0.0000 O   0  0  0  0  0  0  0  0  0  0  0  0
   24.7093  -17.2261    0.0000 O   0  0  0  0  0  0  0  0  0  0  0  0
   33.7156   14.9214    0.0000 O   0  0  0  0  0  0  0  0  0  0  0  0
   31.6709   24.1097    0.0000 O   0  0  0  0  0  0  0  0  0  0  0  0
   38.5379   20.3366    0.0000 O   0  0  0  0  0  0  0  0  0  0  0  0
   10.3817  -35.4603    0.0000 O   0  0  0  0  0  0  0  0  0  0  0  0
    5.7068  -30.2502    0.0000 O   0  0  0  0  0  0  0  0  0  0  0  0
    6.4992  -19.4626    0.0000 O   0  0  0  0  0  0  0  0  0  0  0  0
   28.4567   22.8175    0.0000 O   0  0  0  0  0  0  0  0  0  0  0  0
   11.9350  -30.7077    0.0000 O   0  0  0  0  0  0  0  0  0  0  0  0
   35.7168   32.4530    0.0000 O   0  0  0  0  0  0  0  0  0  0  0  0
   16.9353   15.0558    0.0000 N   0  0  0  0  0  0  0  0  0  0  0  0
   20.2745   11.3343    0.0000 N   0  0  0  0  0  0  0  0  0  0  0  0
   11.6856   15.7195    0.0000 N   0  0  0  0  0  0  0  0  0  0  0  0
   23.7876   14.9229    0.0000 N   0  0  0  0  0  0  0  0  0  0  0  0
    8.4859   11.5050    0.0000 N   0  0  0  0  0  0  0  0  0  0  0  0
   26.2069   19.6290    0.0000 N   0  0  0  0  0  0  0  0  0  0  0  0
   20.8012   -7.6615    0.0000 N   0  0  0  0  0  0  0  0  0  0  0  0
   10.5360    6.6268    0.0000 N   0  0  0  0  0  0  0  0  0  0  0  0
   20.8942  -12.9522    0.0000 N   0  0  0  0  0  0  0  0  0  0  0  0
   21.9538   -2.9567    0.0000 N   0  0  0  0  0  0  0  0  0  0  0  0
   19.2279    1.5787    0.0000 N   0  0  0  0  0  0  0  0  0  0  0  0
   31.5924   20.2424    0.0000 N   0  0  0  0  0  0  0  0  0  0  0  0
   15.0134    4.7783    0.0000 N   0  0  0  0  0  0  0  0  0  0  0  0
   17.5436  -16.4504    0.0000 N   0  0  0  0  0  0  0  0  0  0  0  0
   18.6747    9.2270    0.0000 N   0  0  0  0  0  0  0  0  0  0  0  0
   16.8888   17.7012    0.0000 N   0  0  0  0  0  0  0  0  0  0  0  0
   18.3474   14.9794    0.0000 N   0  0  0  0  0  0  0  0  0  0  0  0
   22.1351   11.0695    0.0000 N   0  0  0  0  0  0  0  0  0  0  0  0
    9.3714   17.0019    0.0000 N   0  0  0  0  0  0  0  0  0  0  0  0
   12.4579   16.9043    0.0000 N   0  0  0  0  0  0  0  0  0  0  0  0
   25.2206   12.6988    0.0000 N   0  0  0  0  0  0  0  0  0  0  0  0
   14.9788  -21.0788    0.0000 N   0  0  0  0  0  0  0  0  0  0  0  0
   34.7441   24.4117    0.0000 N   0  0  0  0  0  0  0  0  0  0  0  0
    6.2182   10.1421    0.0000 N   0  0  0  0  0  0  0  0  0  0  0  0
   24.9186   15.7720    0.0000 N   0  0  0  0  0  0  0  0  0  0  0  0
    7.8461   12.7662    0.0000 N   0  0  0  0  0  0  0  0  0  0  0  0
   23.4261   -7.9934    0.0000 N   0  0  0  0  0  0  0  0  0  0  0  0
   19.3891   -7.5851    0.0000 N   0  0  0  0  0  0  0  0  0  0  0  0
    9.1238    6.7032    0.0000 N   0  0  0  0  0  0  0  0  0  0  0  0
   27.8790   20.6699    0.0000 N   0  0  0  0  0  0  0  0  0  0  0  0
   23.7051   20.4901    0.0000 N   0  0  0  0  0  0  0  0  0  0  0  0
   10.8169  -22.9779    0.0000 N   0  0  0  0  0  0  0  0  0  0  0  0
   21.9193  -15.3913    0.0000 N   0  0  0  0  0  0  0  0  0  0  0  0
   22.1554  -12.3124    0.0000 N   0  0  0  0  0  0  0  0  0  0  0  0
   10.5825    3.9814    0.0000 N   0  0  0  0  0  0  0  0  0  0  0  0
   22.7261   -1.7720    0.0000 N   0  0  0  0  0  0  0  0  0  0  0  0
   31.7214   17.5998    0.0000 N   0  0  0  0  0  0  0  0  0  0  0  0
   24.0611   -4.5565    0.0000 N   0  0  0  0  0  0  0  0  0  0  0  0
   17.9667    0.9388    0.0000 N   0  0  0  0  0  0  0  0  0  0  0  0
   15.7857    5.9630    0.0000 N   0  0  0  0  0  0  0  0  0  0  0  0
   21.6670    2.6037    0.0000 N   0  0  0  0  0  0  0  0  0  0  0  0
   33.1879   21.2356    0.0000 N   0  0  0  0  0  0  0  0  0  0  0  0
   16.3589  -15.6781    0.0000 N   0  0  0  0  0  0  0  0  0  0  0  0
   13.7310    2.4641    0.0000 N   0  0  0  0  0  0  0  0  0  0  0  0
   19.6509  -18.0502    0.0000 N   0  0  0  0  0  0  0  0  0  0  0  0
    7.6172  -27.1924    0.0000 N   0  0  0  0  0  0  0  0  0  0  0  0
   31.1689   27.6801    0.0000 N   0  0  0  0  0  0  0  0  0  0  0  0
   16.3910  -21.1553    0.0000 N   0  0  0  0  0  0  0  0  0  0  0  0
   36.1771   22.1877    0.0000 N   0  0  0  0  0  0  0  0  0  0  0  0
   35.0258   26.3918    0.0000 N   0  0  0  0  0  0  0  0  0  0  0  0
   14.6470  -23.7037    0.0000 N   0  0  0  0  0  0  0  0  0  0  0  0
   12.0016  -23.7502    0.0000 N   0  0  0  0  0  0  0  0  0  0  0  0
    8.5027  -21.6955    0.0000 N   0  0  0  0  0  0  0  0  0  0  0  0
   18.6747    7.6176    0.0000 N   0  0  0  0  0  0  0  0  0  0  0  0
   17.8393   19.0000    0.0000 N   0  0  0  0  0  0  0  0  0  0  0  0
    8.7218   18.4745    0.0000 N   0  0  0  0  0  0  0  0  0  0  0  0
   26.1160   11.3614    0.0000 N   0  0  0  0  0  0  0  0  0  0  0  0
    4.6182   10.3158    0.0000 N   0  0  0  0  0  0  0  0  0  0  0  0
    6.9774  -25.9312    0.0000 N   0  0  0  0  0  0  0  0  0  0  0  0
   16.8624    9.4223    0.0000 N   0  0  0  0  0  0  0  0  0  0  0  0
   30.3079   25.1784    0.0000 N   0  0  0  0  0  0  0  0  0  0  0  0
   24.8199   -7.1887    0.0000 N   0  0  0  0  0  0  0  0  0  0  0  0
   26.6179   13.8693    0.0000 N   0  0  0  0  0  0  0  0  0  0  0  0
   15.3110   18.6139    0.0000 N   0  0  0  0  0  0  0  0  0  0  0  0
   21.9904   20.7341    0.0000 N   0  0  0  0  0  0  0  0  0  0  0  0
   22.5688  -16.8639    0.0000 N   0  0  0  0  0  0  0  0  0  0  0  0
    7.7921   16.0919    0.0000 N   0  0  0  0  0  0  0  0  0  0  0  0
    6.2167    8.3193    0.0000 N   0  0  0  0  0  0  0  0  0  0  0  0
   31.8281   15.9939    0.0000 N   0  0  0  0  0  0  0  0  0  0  0  0
   10.9397    2.2866    0.0000 N   0  0  0  0  0  0  0  0  0  0  0  0
    9.6673  -32.0707    0.0000 N   0  0  0  0  0  0  0  0  0  0  0  0
    5.3496  -28.5554    0.0000 N   0  0  0  0  0  0  0  0  0  0  0  0
   25.2178   -5.8457    0.0000 N   0  0  0  0  0  0  0  0  0  0  0  0
   30.4229   29.5358    0.0000 N   0  0  0  0  0  0  0  0  0  0  0  0
   24.1631   -9.6605    0.0000 N   0  0  0  0  0  0  0  0  0  0  0  0
   22.2051    4.2500    0.0000 N   0  0  0  0  0  0  0  0  0  0  0  0
   23.4986  -14.4813    0.0000 N   0  0  0  0  0  0  0  0  0  0  0  0
   33.5167   17.9148    0.0000 N   0  0  0  0  0  0  0  0  0  0  0  0
   15.9964    7.9223    0.0000 N   0  0  0  0  0  0  0  0  0  0  0  0
   28.1721   13.1046    0.0000 N   0  0  0  0  0  0  0  0  0  0  0  0
   36.8231   20.5806    0.0000 N   0  0  0  0  0  0  0  0  0  0  0  0
    4.6320    7.6203    0.0000 N   0  0  0  0  0  0  0  0  0  0  0  0
   12.0362    2.1070    0.0000 N   0  0  0  0  0  0  0  0  0  0  0  0
    8.2552  -31.9942    0.0000 N   0  0  0  0  0  0  0  0  0  0  0  0
   25.8951   -9.6605    0.0000 N   0  0  0  0  0  0  0  0  0  0  0  0
   21.3457  -17.6931    0.0000 N   0  0  0  0  0  0  0  0  0  0  0  0
   15.4980   20.3358    0.0000 N   0  0  0  0  0  0  0  0  0  0  0  0
   24.8963  -15.5042    0.0000 N   0  0  0  0  0  0  0  0  0  0  0  0
    6.3944   17.1148    0.0000 N   0  0  0  0  0  0  0  0  0  0  0  0
    8.1455  -20.0007    0.0000 N   0  0  0  0  0  0  0  0  0  0  0  0
   34.4803   16.4755    0.0000 N   0  0  0  0  0  0  0  0  0  0  0  0
   15.8037  -24.9928    0.0000 N   0  0  0  0  0  0  0  0  0  0  0  0
   17.0828   21.0348    0.0000 N   0  0  0  0  0  0  0  0  0  0  0  0
   12.2922  -32.4025    0.0000 N   0  0  0  0  0  0  0  0  0  0  0  0
    6.5814   18.8367    0.0000 N   0  0  0  0  0  0  0  0  0  0  0  0
   30.0638   23.4636    0.0000 N   0  0  0  0  0  0  0  0  0  0  0  0
   15.1304    9.4223    0.0000 N   0  0  0  0  0  0  0  0  0  0  0  0
   28.0572   14.8329    0.0000 N   0  0  0  0  0  0  0  0  0  0  0  0
   34.5072   30.0999    0.0000 N   0  0  0  0  0  0  0  0  0  0  0  0
    6.0297    6.5974    0.0000 N   0  0  0  0  0  0  0  0  0  0  0  0
   25.0291  -11.1605    0.0000 N   0  0  0  0  0  0  0  0  0  0  0  0
   25.0833  -13.7823    0.0000 N   0  0  0  0  0  0  0  0  0  0  0  0
   11.4981    0.4606    0.0000 N   0  0  0  0  0  0  0  0  0  0  0  0
   35.2449   18.0296    0.0000 N   0  0  0  0  0  0  0  0  0  0  0  0
    4.0604  -29.7121    0.0000 N   0  0  0  0  0  0  0  0  0  0  0  0
   22.5024  -18.9822    0.0000 N   0  0  0  0  0  0  0  0  0  0  0  0
   34.0020   32.6970    0.0000 N   0  0  0  0  0  0  0  0  0  0  0  0
   15.2656  -26.6392    0.0000 N   0  0  0  0  0  0  0  0  0  0  0  0
   13.5813  -31.2458    0.0000 N   0  0  0  0  0  0  0  0  0  0  0  0
    2.4141  -29.1740    0.0000 N   0  0  0  0  0  0  0  0  0  0  0  0
   35.0707   34.0600    0.0000 N   0  0  0  0  0  0  0  0  0  0  0  0
   15.2277  -31.7839    0.0000 N   0  0  0  0  0  0  0  0  0  0  0  0
   34.4247   35.6671    0.0000 N   0  0  0  0  0  0  0  0  0  0  0  0
   18.6282   11.8724    0.0000 C   0  0  0  0  0  0  0  0  0  0  0  0
   15.2889   15.5939    0.0000 C   0  0  0  0  0  0  0  0  0  0  0  0
   19.6067   12.0786    0.0000 C   0  0  0  0  0  0  0  0  0  0  0  0
   15.9568   14.8496    0.0000 C   0  0  0  0  0  0  0  0  0  0  0  0
   10.3964   14.5628    0.0000 C   0  0  0  0  0  0  0  0  0  0  0  0
   22.7189   13.5599    0.0000 C   0  0  0  0  0  0  0  0  0  0  0  0
   11.3749   14.7690    0.0000 C   0  0  0  0  0  0  0  0  0  0  0  0
   22.8598   14.5499    0.0000 C   0  0  0  0  0  0  0  0  0  0  0  0
   19.9638   10.3838    0.0000 C   0  0  0  0  0  0  0  0  0  0  0  0
   17.2460   16.0063    0.0000 C   0  0  0  0  0  0  0  0  0  0  0  0
    8.8431    9.8102    0.0000 C   0  0  0  0  0  0  0  0  0  0  0  0
   18.9853   10.1776    0.0000 C   0  0  0  0  0  0  0  0  0  0  0  0
   16.5781   16.7506    0.0000 C   0  0  0  0  0  0  0  0  0  0  0  0
   11.0177   16.4638    0.0000 C   0  0  0  0  0  0  0  0  0  0  0  0
    9.1538   10.7607    0.0000 C   0  0  0  0  0  0  0  0  0  0  0  0
   24.5746   14.3059    0.0000 C   0  0  0  0  0  0  0  0  0  0  0  0
   10.0392   16.2576    0.0000 C   0  0  0  0  0  0  0  0  0  0  0  0
   24.4337   13.3159    0.0000 C   0  0  0  0  0  0  0  0  0  0  0  0
   25.1381   18.2660    0.0000 C   0  0  0  0  0  0  0  0  0  0  0  0
    7.5074   11.2988    0.0000 C   0  0  0  0  0  0  0  0  0  0  0  0
   21.1584   -9.3564    0.0000 C   0  0  0  0  0  0  0  0  0  0  0  0
    7.1968   10.3483    0.0000 C   0  0  0  0  0  0  0  0  0  0  0  0
   26.0660   18.6390    0.0000 C   0  0  0  0  0  0  0  0  0  0  0  0
   20.4905   -8.6120    0.0000 C   0  0  0  0  0  0  0  0  0  0  0  0
   21.4157   -4.6030    0.0000 C   0  0  0  0  0  0  0  0  0  0  0  0
   12.1823    6.0887    0.0000 C   0  0  0  0  0  0  0  0  0  0  0  0
   17.9603   12.6167    0.0000 C   0  0  0  0  0  0  0  0  0  0  0  0
   14.3104   15.3877    0.0000 C   0  0  0  0  0  0  0  0  0  0  0  0
   19.6051  -14.1090    0.0000 C   0  0  0  0  0  0  0  0  0  0  0  0
   11.5145    6.8330    0.0000 C   0  0  0  0  0  0  0  0  0  0  0  0
   21.7797   -7.4553    0.0000 C   0  0  0  0  0  0  0  0  0  0  0  0
   25.4199   20.2460    0.0000 C   0  0  0  0  0  0  0  0  0  0  0  0
   19.9157  -13.1584    0.0000 C   0  0  0  0  0  0  0  0  0  0  0  0
   29.9853   19.5963    0.0000 C   0  0  0  0  0  0  0  0  0  0  0  0
   21.2095   -3.6245    0.0000 C   0  0  0  0  0  0  0  0  0  0  0  0
   21.7911   13.1869    0.0000 C   0  0  0  0  0  0  0  0  0  0  0  0
   22.4476   -8.1996    0.0000 C   0  0  0  0  0  0  0  0  0  0  0  0
   10.0857   13.6123    0.0000 C   0  0  0  0  0  0  0  0  0  0  0  0
   20.3846    0.2895    0.0000 C   0  0  0  0  0  0  0  0  0  0  0  0
   24.4921   19.8730    0.0000 C   0  0  0  0  0  0  0  0  0  0  0  0
   10.2253    5.6763    0.0000 C   0  0  0  0  0  0  0  0  0  0  0  0
   21.5621  -13.6965    0.0000 C   0  0  0  0  0  0  0  0  0  0  0  0
   30.6024   20.3833    0.0000 C   0  0  0  0  0  0  0  0  0  0  0  0
   19.4341    0.6002    0.0000 C   0  0  0  0  0  0  0  0  0  0  0  0
   16.1701    3.4892    0.0000 C   0  0  0  0  0  0  0  0  0  0  0  0
   22.9043   -3.2673    0.0000 C   0  0  0  0  0  0  0  0  0  0  0  0
   21.2514  -14.6470    0.0000 C   0  0  0  0  0  0  0  0  0  0  0  0
   10.8931    4.9320    0.0000 C   0  0  0  0  0  0  0  0  0  0  0  0
   15.9639    4.4677    0.0000 C   0  0  0  0  0  0  0  0  0  0  0  0
    9.5109    9.0659    0.0000 C   0  0  0  0  0  0  0  0  0  0  0  0
   23.1106   -4.2458    0.0000 C   0  0  0  0  0  0  0  0  0  0  0  0
   31.9654   19.3146    0.0000 C   0  0  0  0  0  0  0  0  0  0  0  0
   24.9972   17.2760    0.0000 C   0  0  0  0  0  0  0  0  0  0  0  0
   31.3484   18.5276    0.0000 C   0  0  0  0  0  0  0  0  0  0  0  0
   19.9722    2.2465    0.0000 C   0  0  0  0  0  0  0  0  0  0  0  0
   20.9227    1.9358    0.0000 C   0  0  0  0  0  0  0  0  0  0  0  0
   14.2691    4.1105    0.0000 C   0  0  0  0  0  0  0  0  0  0  0  0
   20.8477  -10.3069    0.0000 C   0  0  0  0  0  0  0  0  0  0  0  0
   17.0055  -18.0968    0.0000 C   0  0  0  0  0  0  0  0  0  0  0  0
   20.6714   -5.2709    0.0000 C   0  0  0  0  0  0  0  0  0  0  0  0
   16.7993  -17.1183    0.0000 C   0  0  0  0  0  0  0  0  0  0  0  0
   14.4753    3.1320    0.0000 C   0  0  0  0  0  0  0  0  0  0  0  0
   28.9953   19.7372    0.0000 C   0  0  0  0  0  0  0  0  0  0  0  0
   13.1608    6.2949    0.0000 C   0  0  0  0  0  0  0  0  0  0  0  0
   18.6266  -14.3152    0.0000 C   0  0  0  0  0  0  0  0  0  0  0  0
   20.5909   -0.6890    0.0000 C   0  0  0  0  0  0  0  0  0  0  0  0
   18.4941  -16.7611    0.0000 C   0  0  0  0  0  0  0  0  0  0  0  0
   33.6753   23.0487    0.0000 C   0  0  0  0  0  0  0  0  0  0  0  0
   17.1207    3.1785    0.0000 C   0  0  0  0  0  0  0  0  0  0  0  0
   18.7004  -17.7396    0.0000 C   0  0  0  0  0  0  0  0  0  0  0  0
   33.8162   24.0387    0.0000 C   0  0  0  0  0  0  0  0  0  0  0  0
   13.2840  -21.4360    0.0000 C   0  0  0  0  0  0  0  0  0  0  0  0
   14.0283  -20.7681    0.0000 C   0  0  0  0  0  0  0  0  0  0  0  0
   35.5310   23.7947    0.0000 C   0  0  0  0  0  0  0  0  0  0  0  0
   35.3901   22.8047    0.0000 C   0  0  0  0  0  0  0  0  0  0  0  0
   15.1851  -22.0573    0.0000 C   0  0  0  0  0  0  0  0  0  0  0  0
   32.7475   22.6757    0.0000 C   0  0  0  0  0  0  0  0  0  0  0  0
   16.2612  -18.7646    0.0000 C   0  0  0  0  0  0  0  0  0  0  0  0
   14.4408  -22.7251    0.0000 C   0  0  0  0  0  0  0  0  0  0  0  0
    9.5278  -24.1346    0.0000 C   0  0  0  0  0  0  0  0  0  0  0  0
   10.5063  -23.9284    0.0000 C   0  0  0  0  0  0  0  0  0  0  0  0
   10.1491  -22.2336    0.0000 C   0  0  0  0  0  0  0  0  0  0  0  0
   12.3335  -21.1253    0.0000 C   0  0  0  0  0  0  0  0  0  0  0  0
    9.1706  -22.4398    0.0000 C   0  0  0  0  0  0  0  0  0  0  0  0
   17.7285    8.9223    0.0000 C   0  0  0  0  0  0  0  0  0  0  0  0
   16.3052   18.5059    0.0000 C   0  0  0  0  0  0  0  0  0  0  0  0
   32.5319   26.6114    0.0000 C   0  0  0  0  0  0  0  0  0  0  0  0
    8.3827   16.8989    0.0000 C   0  0  0  0  0  0  0  0  0  0  0  0
   26.1765   12.9720    0.0000 C   0  0  0  0  0  0  0  0  0  0  0  0
    5.8131    9.2343    0.0000 C   0  0  0  0  0  0  0  0  0  0  0  0
   18.1412   15.9579    0.0000 C   0  0  0  0  0  0  0  0  0  0  0  0
   19.2980   14.6687    0.0000 C   0  0  0  0  0  0  0  0  0  0  0  0
   22.9841   11.5980    0.0000 C   0  0  0  0  0  0  0  0  0  0  0  0
   22.1683   10.0701    0.0000 C   0  0  0  0  0  0  0  0  0  0  0  0
   19.2583    8.4223    0.0000 C   0  0  0  0  0  0  0  0  0  0  0  0
   11.5073   17.2149    0.0000 C   0  0  0  0  0  0  0  0  0  0  0  0
   13.2022   17.5721    0.0000 C   0  0  0  0  0  0  0  0  0  0  0  0
   32.1589   27.5392    0.0000 C   0  0  0  0  0  0  0  0  0  0  0  0
   17.8350   18.0059    0.0000 C   0  0  0  0  0  0  0  0  0  0  0  0
    9.2171  -25.0851    0.0000 C   0  0  0  0  0  0  0  0  0  0  0  0
    9.5806   17.9737    0.0000 C   0  0  0  0  0  0  0  0  0  0  0  0
   25.1834   11.7055    0.0000 C   0  0  0  0  0  0  0  0  0  0  0  0
   25.5356   16.5590    0.0000 C   0  0  0  0  0  0  0  0  0  0  0  0
   25.2916   14.8442    0.0000 C   0  0  0  0  0  0  0  0  0  0  0  0
   24.1631   -8.6605    0.0000 C   0  0  0  0  0  0  0  0  0  0  0  0
    7.6398   13.7447    0.0000 C   0  0  0  0  0  0  0  0  0  0  0  0
    7.1018   12.0984    0.0000 C   0  0  0  0  0  0  0  0  0  0  0  0
   33.5219   26.4705    0.0000 C   0  0  0  0  0  0  0  0  0  0  0  0
    5.4812   10.8092    0.0000 C   0  0  0  0  0  0  0  0  0  0  0  0
    8.2851  -27.9367    0.0000 C   0  0  0  0  0  0  0  0  0  0  0  0
   30.5519   26.8932    0.0000 C   0  0  0  0  0  0  0  0  0  0  0  0
   30.9249   25.9653    0.0000 C   0  0  0  0  0  0  0  0  0  0  0  0
   22.9080  -15.2883    0.0000 C   0  0  0  0  0  0  0  0  0  0  0  0
    7.9744  -28.8872    0.0000 C   0  0  0  0  0  0  0  0  0  0  0  0
    6.6388  -27.3986    0.0000 C   0  0  0  0  0  0  0  0  0  0  0  0
   32.6857   17.3585    0.0000 C   0  0  0  0  0  0  0  0  0  0  0  0
   23.8312   -7.0856    0.0000 C   0  0  0  0  0  0  0  0  0  0  0  0
   18.4385   -7.2744    0.0000 C   0  0  0  0  0  0  0  0  0  0  0  0
   19.5953   -8.5636    0.0000 C   0  0  0  0  0  0  0  0  0  0  0  0
    8.1733    7.0139    0.0000 C   0  0  0  0  0  0  0  0  0  0  0  0
    9.3300    5.7247    0.0000 C   0  0  0  0  0  0  0  0  0  0  0  0
   27.6728   21.6484    0.0000 C   0  0  0  0  0  0  0  0  0  0  0  0
   28.8295   20.3592    0.0000 C   0  0  0  0  0  0  0  0  0  0  0  0
   23.8460   21.4801    0.0000 C   0  0  0  0  0  0  0  0  0  0  0  0
   17.7285    7.9223    0.0000 C   0  0  0  0  0  0  0  0  0  0  0  0
    6.3281  -28.3491    0.0000 C   0  0  0  0  0  0  0  0  0  0  0  0
   22.8997  -11.6445    0.0000 C   0  0  0  0  0  0  0  0  0  0  0  0
   22.3616  -13.2909    0.0000 C   0  0  0  0  0  0  0  0  0  0  0  0
   16.8957   19.3129    0.0000 C   0  0  0  0  0  0  0  0  0  0  0  0
   22.7773   20.1171    0.0000 C   0  0  0  0  0  0  0  0  0  0  0  0
   21.7101  -16.3632    0.0000 C   0  0  0  0  0  0  0  0  0  0  0  0
    7.9791   17.8138    0.0000 C   0  0  0  0  0  0  0  0  0  0  0  0
   23.0368   -0.8214    0.0000 C   0  0  0  0  0  0  0  0  0  0  0  0
   23.3940   -2.5163    0.0000 C   0  0  0  0  0  0  0  0  0  0  0  0
   26.7328   12.1410    0.0000 C   0  0  0  0  0  0  0  0  0  0  0  0
    9.6040    3.7752    0.0000 C   0  0  0  0  0  0  0  0  0  0  0  0
   24.8054   -3.8887    0.0000 C   0  0  0  0  0  0  0  0  0  0  0  0
   11.2503    3.2371    0.0000 C   0  0  0  0  0  0  0  0  0  0  0  0
   31.1924   16.7581    0.0000 C   0  0  0  0  0  0  0  0  0  0  0  0
    4.8190    9.3422    0.0000 C   0  0  0  0  0  0  0  0  0  0  0  0
   16.9882    0.7326    0.0000 C   0  0  0  0  0  0  0  0  0  0  0  0
   18.6346    0.1945    0.0000 C   0  0  0  0  0  0  0  0  0  0  0  0
   24.2673   -5.5350    0.0000 C   0  0  0  0  0  0  0  0  0  0  0  0
   16.4535    5.2188    0.0000 C   0  0  0  0  0  0  0  0  0  0  0  0
   16.0963    6.9136    0.0000 C   0  0  0  0  0  0  0  0  0  0  0  0
   22.6176    2.2930    0.0000 C   0  0  0  0  0  0  0  0  0  0  0  0
   33.4986   22.1861    0.0000 C   0  0  0  0  0  0  0  0  0  0  0  0
   33.8558   20.4913    0.0000 C   0  0  0  0  0  0  0  0  0  0  0  0
   21.4608    3.5822    0.0000 C   0  0  0  0  0  0  0  0  0  0  0  0
   25.0291   -8.1605    0.0000 C   0  0  0  0  0  0  0  0  0  0  0  0
   15.6910  -14.9338    0.0000 C   0  0  0  0  0  0  0  0  0  0  0  0
   16.0482  -16.6286    0.0000 C   0  0  0  0  0  0  0  0  0  0  0  0
   23.3116  -16.2032    0.0000 C   0  0  0  0  0  0  0  0  0  0  0  0
    8.6423  -29.6315    0.0000 C   0  0  0  0  0  0  0  0  0  0  0  0
   13.9372    1.4856    0.0000 C   0  0  0  0  0  0  0  0  0  0  0  0
   32.7520   16.3607    0.0000 C   0  0  0  0  0  0  0  0  0  0  0  0
   12.7805    2.7748    0.0000 C   0  0  0  0  0  0  0  0  0  0  0  0
   23.0591   22.0971    0.0000 C   0  0  0  0  0  0  0  0  0  0  0  0
   17.3695  -20.9490    0.0000 C   0  0  0  0  0  0  0  0  0  0  0  0
   16.0803  -22.1058    0.0000 C   0  0  0  0  0  0  0  0  0  0  0  0
   19.8571  -19.0287    0.0000 C   0  0  0  0  0  0  0  0  0  0  0  0
    9.2933    2.8247    0.0000 C   0  0  0  0  0  0  0  0  0  0  0  0
   25.7559   -4.1993    0.0000 C   0  0  0  0  0  0  0  0  0  0  0  0
   37.1049   22.5607    0.0000 C   0  0  0  0  0  0  0  0  0  0  0  0
   20.3952  -17.3824    0.0000 C   0  0  0  0  0  0  0  0  0  0  0  0
   36.0362   21.1976    0.0000 C   0  0  0  0  0  0  0  0  0  0  0  0
   23.3619    2.9609    0.0000 C   0  0  0  0  0  0  0  0  0  0  0  0
   34.2389   27.0088    0.0000 C   0  0  0  0  0  0  0  0  0  0  0  0
   35.9537   26.7648    0.0000 C   0  0  0  0  0  0  0  0  0  0  0  0
   16.8624    7.4223    0.0000 C   0  0  0  0  0  0  0  0  0  0  0  0
   16.4922   20.2278    0.0000 C   0  0  0  0  0  0  0  0  0  0  0  0
   12.9522  -24.0608    0.0000 C   0  0  0  0  0  0  0  0  0  0  0  0
   11.2573  -24.4180    0.0000 C   0  0  0  0  0  0  0  0  0  0  0  0
   13.9027  -24.3715    0.0000 C   0  0  0  0  0  0  0  0  0  0  0  0
   27.7306   12.2073    0.0000 C   0  0  0  0  0  0  0  0  0  0  0  0
    6.9849   17.9218    0.0000 C   0  0  0  0  0  0  0  0  0  0  0  0
   22.1312   21.7241    0.0000 C   0  0  0  0  0  0  0  0  0  0  0  0
   15.5975  -24.0143    0.0000 C   0  0  0  0  0  0  0  0  0  0  0  0
    4.2284    8.5353    0.0000 C   0  0  0  0  0  0  0  0  0  0  0  0
    7.5242  -21.9017    0.0000 C   0  0  0  0  0  0  0  0  0  0  0  0
    9.9612    2.0804    0.0000 C   0  0  0  0  0  0  0  0  0  0  0  0
    9.3566  -33.0212    0.0000 C   0  0  0  0  0  0  0  0  0  0  0  0
   10.6458  -31.8644    0.0000 C   0  0  0  0  0  0  0  0  0  0  0  0
    8.8134  -20.7450    0.0000 C   0  0  0  0  0  0  0  0  0  0  0  0
   25.9621   -5.1778    0.0000 C   0  0  0  0  0  0  0  0  0  0  0  0
   25.8951   -8.6605    0.0000 C   0  0  0  0  0  0  0  0  0  0  0  0
   15.9964    8.9223    0.0000 C   0  0  0  0  0  0  0  0  0  0  0  0
   23.1556    3.9394    0.0000 C   0  0  0  0  0  0  0  0  0  0  0  0
   10.0245  -33.7655    0.0000 C   0  0  0  0  0  0  0  0  0  0  0  0
   11.3137  -32.6087    0.0000 C   0  0  0  0  0  0  0  0  0  0  0  0
   13.1929    0.8178    0.0000 C   0  0  0  0  0  0  0  0  0  0  0  0
   24.3057  -16.3112    0.0000 C   0  0  0  0  0  0  0  0  0  0  0  0
   37.8918   21.9436    0.0000 C   0  0  0  0  0  0  0  0  0  0  0  0
   27.6157   13.9356    0.0000 C   0  0  0  0  0  0  0  0  0  0  0  0
   33.6493   15.9192    0.0000 C   0  0  0  0  0  0  0  0  0  0  0  0
    5.6261    7.5124    0.0000 C   0  0  0  0  0  0  0  0  0  0  0  0
   31.8646   29.9709    0.0000 C   0  0  0  0  0  0  0  0  0  0  0  0
   20.8076  -19.3394    0.0000 C   0  0  0  0  0  0  0  0  0  0  0  0
    6.7712  -24.9527    0.0000 C   0  0  0  0  0  0  0  0  0  0  0  0
    6.2331  -26.5991    0.0000 C   0  0  0  0  0  0  0  0  0  0  0  0
   23.2000   23.0871    0.0000 C   0  0  0  0  0  0  0  0  0  0  0  0
   14.9074   19.5288    0.0000 C   0  0  0  0  0  0  0  0  0  0  0  0
   25.0291  -10.1605    0.0000 C   0  0  0  0  0  0  0  0  0  0  0  0
   32.7924   30.3439    0.0000 C   0  0  0  0  0  0  0  0  0  0  0  0
    6.7979   16.1999    0.0000 C   0  0  0  0  0  0  0  0  0  0  0  0
    8.3148    2.6185    0.0000 C   0  0  0  0  0  0  0  0  0  0  0  0
   29.3179   25.3193    0.0000 C   0  0  0  0  0  0  0  0  0  0  0  0
   26.5002   -3.5315    0.0000 C   0  0  0  0  0  0  0  0  0  0  0  0
   24.4927  -14.5893    0.0000 C   0  0  0  0  0  0  0  0  0  0  0  0
    6.8564  -21.1574    0.0000 C   0  0  0  0  0  0  0  0  0  0  0  0
   12.2424    1.1284    0.0000 C   0  0  0  0  0  0  0  0  0  0  0  0
   30.6809   24.2506    0.0000 C   0  0  0  0  0  0  0  0  0  0  0  0
   24.3124    2.6502    0.0000 C   0  0  0  0  0  0  0  0  0  0  0  0
   37.7509   20.9536    0.0000 C   0  0  0  0  0  0  0  0  0  0  0  0
   34.4140   17.4733    0.0000 C   0  0  0  0  0  0  0  0  0  0  0  0
   14.1089  -25.3500    0.0000 C   0  0  0  0  0  0  0  0  0  0  0  0
   21.5519  -18.6716    0.0000 C   0  0  0  0  0  0  0  0  0  0  0  0
   31.0400   30.3227    0.0000 C   0  0  0  0  0  0  0  0  0  0  0  0
   29.4329   29.6766    0.0000 C   0  0  0  0  0  0  0  0  0  0  0  0
    4.6817  -27.8111    0.0000 C   0  0  0  0  0  0  0  0  0  0  0  0
    5.0389  -29.5059    0.0000 C   0  0  0  0  0  0  0  0  0  0  0  0
   33.5793   29.7269    0.0000 C   0  0  0  0  0  0  0  0  0  0  0  0
    7.1670  -20.2069    0.0000 C   0  0  0  0  0  0  0  0  0  0  0  0
    9.7138  -34.7160    0.0000 C   0  0  0  0  0  0  0  0  0  0  0  0
   15.0594  -25.6607    0.0000 C   0  0  0  0  0  0  0  0  0  0  0  0
   28.7008   24.5324    0.0000 C   0  0  0  0  0  0  0  0  0  0  0  0
   38.8197   22.3166    0.0000 C   0  0  0  0  0  0  0  0  0  0  0  0
   33.8611   31.7070    0.0000 C   0  0  0  0  0  0  0  0  0  0  0  0
   34.6481   31.0899    0.0000 C   0  0  0  0  0  0  0  0  0  0  0  0
    8.4614  -32.9727    0.0000 C   0  0  0  0  0  0  0  0  0  0  0  0
    7.3046  -31.6835    0.0000 C   0  0  0  0  0  0  0  0  0  0  0  0
    5.8779  -21.3636    0.0000 C   0  0  0  0  0  0  0  0  0  0  0  0
   29.0738   23.6045    0.0000 C   0  0  0  0  0  0  0  0  0  0  0  0
    3.7032  -28.0173    0.0000 C   0  0  0  0  0  0  0  0  0  0  0  0
    3.3926  -28.9678    0.0000 C   0  0  0  0  0  0  0  0  0  0  0  0
   27.7108   24.6732    0.0000 C   0  0  0  0  0  0  0  0  0  0  0  0
   12.9600  -33.1468    0.0000 C   0  0  0  0  0  0  0  0  0  0  0  0
   12.6028  -31.4520    0.0000 C   0  0  0  0  0  0  0  0  0  0  0  0
   13.9385  -32.9406    0.0000 C   0  0  0  0  0  0  0  0  0  0  0  0
   33.2151   33.3140    0.0000 C   0  0  0  0  0  0  0  0  0  0  0  0
   34.9298   33.0700    0.0000 C   0  0  0  0  0  0  0  0  0  0  0  0
   14.2492  -31.9901    0.0000 C   0  0  0  0  0  0  0  0  0  0  0  0
   33.3560   34.3040    0.0000 C   0  0  0  0  0  0  0  0  0  0  0  0
   34.2838   34.6770    0.0000 C   0  0  0  0  0  0  0  0  0  0  0  0
  1 26  1  0
  1 52  2  0
  1109  1  0
  1125  1  0
  2 28  1  0
  2 53  2  0
  2110  1  0
  2126  1  0
  3 27  1  0
  3 54  2  0
  3111  1  0
  3128  1  0
  4 32  1  0
  4 55  2  0
  4112  1  0
  4133  1  0
  5 31  1  0
  5 56  2  0
  5113  1  0
  5134  1  0
  6 40  1  0
  6 60  2  0
  6115  1  0
  6136  1  0
  7 37  1  0
  7 61  2  0
  7116  1  0
  7137  1  0
  8 41  1  0
  8 62  2  0
  8114  1  0
  8138  1  0
  9 39  1  0
  9 63  2  0
  9117  1  0
  9142  1  0
 10 43  1  0
 10 64  2  0
 10118  1  0
 10144  1  0
 11 45  1  0
 11 65  2  0
 11119  1  0
 11147  1  0
 12 44  1  0
 12 66  2  0
 12121  1  0
 12148  1  0
 13 48  1  0
 13 68  2  0
 13120  1  0
 13150  1  0
 14 46  1  0
 14 70  2  0
 14122  1  0
 14151  1  0
 15 51  1  0
 15 72  2  0
 15130  1  0
 15156  1  0
 16 59  1  0
 16 73  2  0
 16131  1  0
 16158  1  0
 17 58  1  0
 17 74  2  0
 17140  1  0
 17160  1  0
 18 69  1  0
 18 77  2  0
 18154  1  0
 18167  1  0
 19 76  1  0
 19 80  2  0
 19155  1  0
 19182  1  0
 20 75  1  0
 20 88  2  0
 20179  1  0
 20192  1  0
 21222  1  0
 21233  1  0
 22223  1  0
 22234  1  0
 23226  1  0
 23238  1  0
 24227  1  0
 24239  1  0
 25232  1  0
 25243  1  0
 26248  1  0
 27249  1  0
 28257  1  0
 29240  1  0
 29261  1  0
 30242  1  0
 30258  1  0
 31259  1  0
 32274  1  0
 33247  1  0
 33269  1  0
 34250  1  0
 34268  1  0
 35246  1  0
 35272  1  0
 36255  1  0
 36275  1  0
 37271  1  0
 38260  1  0
 38277  1  0
 39279  1  0
 40281  1  0
 41284  1  0
 42266  1  0
 42283  1  0
 43287  1  0
 44285  1  0
 45290  1  0
 46286  1  0
 47280  1  0
 47291  1  0
 48298  1  0
 49289  1  0
 49296  1  0
 50293  1  0
 50300  1  0
 51299  1  0
 57301  1  0
 57305  1  0
 58304  1  0
 59329  1  0
 67308  1  0
 67333  1  0
 69321  1  0
 71335  1  0
 71347  1  0
 75375  1  0
 76418  1  0
 78351  2  0
 79410  1  0
 79411  1  0
 81359  2  0
 82364  2  0
 83370  2  0
 84378  2  0
 85425  1  0
 85449  1  0
 86386  2  0
 87387  2  0
 89391  2  0
 90396  2  0
 91398  2  0
 92399  2  0
 93400  2  0
 94402  2  0
 95405  2  0
 96406  2  0
 97407  2  0
 98409  2  0
 99413  2  0
100416  2  0
101433  2  0
102435  2  0
103445  1  0
104442  2  0
105444  2  0
106454  2  0
107459  2  0
108462  2  0
109225  1  0
109231  1  0
110224  1  0
110230  1  0
111228  1  0
111235  1  0
112229  1  0
112237  1  0
113236  1  0
113241  1  0
114244  1  0
114253  1  0
115245  1  0
115252  1  0
116251  1  0
116262  1  0
117254  1  0
117263  1  0
118256  1  0
118267  1  0
119265  1  0
119276  1  0
120264  1  0
120273  1  0
121270  1  0
121278  1  0
122282  1  0
122288  1  0
233123  1  6
123306  1  0
123316  1  0
234124  1  1
124307  1  0
124320  1  0
125312  1  0
125313  1  0
126314  1  0
126315  1  0
238127  1  1
127309  1  0
127322  1  0
128317  1  0
128318  1  0
239129  1  6
129310  1  0
129323  1  0
130294  1  0
130297  1  0
131292  1  0
131295  1  0
243132  1  1
132311  1  0
132330  1  0
133324  1  0
133325  1  0
134327  1  0
134328  1  0
258135  1  6
135326  1  0
135338  1  0
136339  1  0
136340  1  0
137341  1  0
137342  1  0
138343  1  0
138344  1  0
261139  1  1
139345  1  0
139351  1  0
140302  1  0
140303  1  0
268141  1  6
141334  1  0
141352  1  0
142348  1  0
142349  1  0
269143  1  1
143357  1  0
143359  1  0
144354  1  0
144355  1  0
275145  1  6
145337  1  0
145360  1  0
272146  1  6
146358  1  0
146364  1  0
147362  1  0
147363  1  0
148365  1  0
148366  1  0
277149  1  6
149367  1  0
149370  1  0
150368  1  0
150369  1  0
151372  1  0
151373  1  0
283152  1  1
152376  1  0
152378  1  0
291153  1  6
153382  1  0
153386  1  0
154331  1  0
154336  1  0
155319  1  0
155332  1  0
156380  1  0
156381  1  0
296157  1  6
157385  1  0
157387  1  0
158389  1  0
158390  1  0
300159  1  6
159395  1  0
159399  1  0
160393  1  0
160394  1  0
305161  1  1
161401  1  0
161405  1  0
162316  2  0
162346  1  0
163320  2  0
163350  1  0
164322  2  0
164353  1  0
165323  2  0
165356  1  0
166330  2  0
166361  1  0
167420  1  0
167421  1  0
168306  1  0
168408  2  0
333169  1  1
169428  1  0
169433  1  0
170338  2  0
170371  1  0
171310  1  0
171415  2  0
172307  1  0
172423  2  0
173351  1  0
173398  1  0
174352  2  0
174374  1  0
175309  1  0
175426  2  0
176311  1  0
176417  2  0
177360  2  0
177377  1  0
178359  1  0
178402  1  0
179403  1  0
179404  1  0
347180  1  1
180441  1  0
180442  1  0
181364  1  0
181406  1  0
182439  1  0
182440  1  0
183326  1  0
183424  2  0
184370  1  0
184409  1  0
185334  1  0
185430  2  0
186337  1  0
186436  2  0
187391  1  0
187408  1  0
188396  1  0
188415  1  0
189387  1  0
189435  1  0
190400  1  0
190417  1  0
191378  1  0
191432  2  0
192451  1  0
192452  1  0
193407  1  0
193424  1  0
194386  1  0
194438  2  0
195392  2  0
195423  1  0
196413  1  0
196430  1  0
197397  2  0
197426  1  0
198405  1  0
198444  1  0
199416  1  0
199436  1  0
200399  1  0
200446  2  0
201392  1  0
411202  1  6
202458  1  0
202459  1  0
203397  1  0
204433  1  0
204454  1  0
205408  1  0
206415  1  0
207443  1  0
207450  1  0
208417  1  0
209424  1  0
210430  1  0
211432  1  0
212436  1  0
213442  1  0
213456  2  0
214438  1  0
449215  1  1
215461  1  0
215462  1  0
216446  1  0
217459  1  0
217463  2  0
218456  1  0
219462  1  0
219465  2  0
220463  1  0
221465  1  0
222224  1  0
222248  1  6
223225  1  0
223249  1  1
226228  1  0
226259  1  1
227229  1  0
227257  1  6
230233  1  0
231234  1  0
232236  1  0
232271  1  1
235238  1  0
237239  1  0
240244  1  0
240274  1  1
241243  1  0
242245  1  0
242279  1  6
246256  1  0
246281  1  6
247251  1  0
247285  1  1
250254  1  0
250286  1  6
252258  1  0
253261  1  0
255264  1  0
255284  1  6
260265  1  0
260287  1  6
262269  1  0
263268  1  0
266270  1  0
266290  1  1
267272  1  0
273275  1  0
276277  1  0
278283  1  0
280282  1  0
280299  1  6
288291  1  0
289292  1  0
289298  1  6
293294  1  0
293304  1  6
295296  1  0
297300  1  0
301302  1  0
301321  1  1
303305  1  0
306346  2  0
307350  2  0
308319  1  0
308329  1  1
309353  2  0
310356  2  0
311361  2  0
326371  2  0
331335  1  0
332333  1  0
334374  2  0
335375  1  1
336347  1  0
337377  2  0
345379  2  0
346391  1  0
350392  1  0
353397  1  0
356396  1  0
357383  2  0
358384  2  0
361400  1  0
367388  2  0
371407  1  0
374413  1  0
376412  2  0
377416  1  0
379398  1  0
379422  1  0
382419  2  0
383402  1  0
383427  1  0
384406  1  0
384429  1  0
385414  2  0
388409  1  0
388434  1  0
395437  2  0
401431  2  0
403410  1  0
404411  1  0
410445  1  6
412432  1  0
414435  1  0
414448  1  0
425418  1  1
419438  1  0
425443  1  0
428447  2  0
431444  1  0
431453  1  0
437446  1  0
441455  2  0
447454  1  0
447457  1  0
449450  1  0
455456  1  0
458460  2  0
460463  1  0
461464  2  0
464465  1  0
M  END
