 
 
 
 42 45  0  0  1  0  0  0  0  0999 V2000
   23.0804  -15.8913    0.0000 K   0  3  0  0  0  0  0  0  0  0  0  0
   18.3175  -12.4113    0.0000 N   0  0  0  0  0  0  0  0  0  0  0  0
   18.3175  -13.8134    0.0000 C   0  0  0  0  0  0  0  0  0  0  0  0
   19.5093  -14.5144    0.0000 C   0  0  0  0  0  0  0  0  0  0  0  0
   20.7711  -13.8134    0.0000 C   0  0  0  0  0  0  0  0  0  0  0  0
   20.7711  -12.4113    0.0000 C   0  0  0  0  0  0  0  0  0  0  0  0
   19.5093  -11.7103    0.0000 C   0  0  0  0  0  0  0  0  0  0  0  0
   19.5093  -10.3082    0.0000 N   0  0  0  0  0  0  0  0  0  0  0  0
   20.6309   -9.4670    0.0000 C   0  0  0  0  0  0  0  0  0  0  0  0
   20.2103   -8.1350    0.0000 C   0  0  0  0  0  0  0  0  0  0  0  0
   18.8082   -8.1350    0.0000 C   0  0  0  0  0  0  0  0  0  0  0  0
   18.3876   -9.4670    0.0000 C   0  0  0  0  0  0  0  0  0  0  0  0
   17.1257  -14.5144    0.0000 N   0  0  0  0  0  0  0  0  0  0  0  0
   21.9629  -11.7103    0.0000 C   0  0  0  0  0  0  0  0  0  0  0  0
   23.2248  -12.4113    0.0000 N   0  5  0  0  0  0  0  0  0  0  0  0
   21.9629  -10.3082    0.0000 O   0  0  0  0  0  0  0  0  0  0  0  0
   24.4165  -11.7103    0.0000 S   0  0  0  0  0  0  0  0  0  0  0  0
   17.6866  -10.7288    0.0000 C   0  0  0  0  0  0  0  0  0  0  0  0
   17.1958   -8.7659    0.0000 C   0  0  0  0  0  0  0  0  0  0  0  0
   21.0515   -7.0835    0.0000 C   0  0  0  0  0  0  0  0  0  0  0  0
   15.7938  -14.1639    0.0000 C   0  0  0  0  0  0  0  0  0  0  0  0
   15.0226  -15.2856    0.0000 C   0  0  0  0  0  0  0  0  0  0  0  0
   15.9340  -16.4072    0.0000 C   0  0  0  0  0  0  0  0  0  0  0  0
   17.1958  -15.9165    0.0000 N   0  0  0  0  0  0  0  0  0  0  0  0
   15.5134  -17.7392    0.0000 O   0  0  0  0  0  0  0  0  0  0  0  0
   14.1113  -17.7392    0.0000 C   0  0  0  0  0  0  0  0  0  0  0  0
   13.4103  -18.9309    0.0000 C   0  0  0  0  0  0  0  0  0  0  0  0
   12.0082  -18.9309    0.0000 C   0  0  0  0  0  0  0  0  0  0  0  0
   11.3072  -17.7392    0.0000 C   0  0  0  0  0  0  0  0  0  0  0  0
   11.3072  -20.1227    0.0000 C   0  0  0  0  0  0  0  0  0  0  0  0
   10.6061  -18.9309    0.0000 C   0  0  0  0  0  0  0  0  0  0  0  0
    9.9051  -17.7392    0.0000 F   0  0  0  0  0  0  0  0  0  0  0  0
   12.0082  -16.4773    0.0000 F   0  0  0  0  0  0  0  0  0  0  0  0
   10.3257  -16.7577    0.0000 F   0  0  0  0  0  0  0  0  0  0  0  0
   24.4165  -10.3082    0.0000 C   0  0  0  0  0  0  0  0  0  0  0  0
   25.6083   -9.6072    0.0000 C   0  0  0  0  0  0  0  0  0  0  0  0
   25.6083   -8.2051    0.0000 C   0  0  0  0  0  0  0  0  0  0  0  0
   24.4165   -7.5041    0.0000 C   0  0  0  0  0  0  0  0  0  0  0  0
   23.1546   -8.2051    0.0000 C   0  0  0  0  0  0  0  0  0  0  0  0
   23.1546   -9.6773    0.0000 C   0  0  0  0  0  0  0  0  0  0  0  0
   25.6083  -11.0093    0.0000 O   0  0  0  0  0  0  0  0  0  0  0  0
   25.3980  -12.6917    0.0000 O   0  0  0  0  0  0  0  0  0  0  0  0
  2  3  2  0     0  0
  3  4  1  0     0  0
  4  5  2  0     0  0
  5  6  1  0     0  0
  6  7  2  0     0  0
  2  7  1  0     0  0
  7  8  1  0     0  0
  8  9  1  0     0  0
  9 10  1  0     0  0
 10 11  1  0     0  0
 11 12  1  0     0  0
  8 12  1  0     0  0
  3 13  1  0     0  0
  6 14  1  0     0  0
 14 15  1  0     0  0
 14 16  2  0     0  0
 15 17  1  0     0  0
 12 18  1  0     0  0
 12 19  1  0     0  0
 10 20  1  6     0  0
 13 21  1  0     0  0
 21 22  2  0     0  0
 22 23  1  0     0  0
 23 24  2  0     0  0
 13 24  1  0     0  0
 23 25  1  0     0  0
 25 26  1  0     0  0
 26 27  1  0     0  0
 27 28  1  0     0  0
 28 29  1  0     0  0
 28 30  1  0     0  0
 28 31  1  0     0  0
 30 31  1  0     0  0
 29 32  1  0     0  0
 29 33  1  0     0  0
 29 34  1  0     0  0
 17 35  1  0     0  0
 35 36  2  0     0  0
 36 37  1  0     0  0
 37 38  2  0     0  0
 38 39  1  0     0  0
 39 40  2  0     0  0
 35 40  1  0     0  0
 17 41  2  0     0  0
 17 42  2  0     0  0
M  CHG  2   1   1  15  -1
M  END
