 
     RDKit          2D

173178  0  0  1  0  0  0  0  0999 V2000
   16.6600  -25.0600    0.0000 C   0  0  0  0  0  0  0  0  0  0  0  0
   16.6600  -26.4600    0.0000 C   0  0  0  0  0  0  0  0  0  0  0  0
   17.8500  -27.1600    0.0000 C   0  0  0  0  0  0  0  0  0  0  0  0
   19.1100  -26.4600    0.0000 C   0  0  0  0  0  0  0  0  0  0  0  0
   19.1100  -25.0600    0.0000 C   0  0  0  0  0  0  0  0  0  0  0  0
   17.8500  -24.3600    0.0000 C   0  0  0  0  0  0  0  0  0  0  0  0
   20.3000  -27.1600    0.0000 C   0  0  0  0  0  0  0  0  0  0  0  0
   21.4900  -26.4600    0.0000 C   0  0  0  0  0  0  0  0  0  0  0  0
   21.4900  -25.0600    0.0000 C   0  0  0  0  0  0  0  0  0  0  0  0
   20.3000  -24.3600    0.0000 C   0  0  0  0  0  0  0  0  0  0  0  0
   22.7500  -24.3600    0.0000 C   0  0  0  0  0  0  0  0  0  0  0  0
   22.7500  -22.9600    0.0000 C   0  0  0  0  0  0  0  0  0  0  0  0
   21.4900  -22.2600    0.0000 C   0  0  0  0  0  0  0  0  0  0  0  0
   20.3000  -22.9600    0.0000 C   0  0  0  0  0  0  0  0  0  0  0  0
   25.1300  -24.3600    0.0000 C   0  0  0  0  0  0  0  0  0  0  0  0
   25.1300  -22.9600    0.0000 C   0  0  0  0  0  0  0  0  0  0  0  0
   23.9400  -22.2600    0.0000 C   0  0  0  0  0  0  0  0  0  0  0  0
   15.4700  -27.1600    0.0000 O   0  0  0  0  0  0  0  0  0  0  0  0
   19.1100  -23.6600    0.0000 C   0  0  0  0  0  0  0  0  0  0  0  0
   19.1100  -22.2600    0.0000 O   0  0  0  0  0  0  0  0  0  0  0  0
   22.7500  -21.5600    0.0000 C   0  0  0  0  0  0  0  0  0  0  0  0
   23.9400  -20.7200    0.0000 C   0  0  0  0  0  0  0  0  0  0  0  0
   25.1300  -21.5600    0.0000 O   0  0  0  0  0  0  0  0  0  0  0  0
   26.5300  -22.6100    0.0000 O   0  0  0  0  0  0  0  0  0  0  0  0
   26.5300  -21.5600    0.0000 C   0  0  0  0  0  0  0  0  0  0  0  0
   27.7200  -20.8600    0.0000 C   0  0  0  0  0  0  0  0  0  0  0  0
   28.9100  -21.5600    0.0000 C   0  0  0  0  0  0  0  0  0  0  0  0
   30.1000  -20.8600    0.0000 C   0  0  0  0  0  0  0  0  0  0  0  0
   25.1524  -20.0200    0.0000 O   0  0  0  0  0  0  0  0  0  0  0  0
   22.7276  -20.0200    0.0000 C   0  0  0  0  0  0  0  0  0  0  0  0
   21.5321  -20.7104    0.0000 O   0  0  0  0  0  0  0  0  0  0  0  0
   24.1031  -22.1674    0.0000 C   0  0  0  0  0  0  0  0  0  0  0  0
   22.9701  -22.8047    0.0000 C   0  0  0  0  0  0  0  0  0  0  0  0
   21.7662  -22.1674    0.0000 O   0  0  0  0  0  0  0  0  0  0  0  0
   22.9701  -24.2210    0.0000 O   0  0  0  0  0  0  0  0  0  0  0  0
   20.4915  -22.8756    0.0000 C   0  0  0  0  0  0  0  0  0  0  0  0
   19.4128  -22.0966    0.0000 C   0  0  0  0  0  0  0  0  0  0  0  0
   20.0908  -24.2414    0.0000 C   0  0  0  0  0  0  0  0  0  0  0  0
   18.2555  -22.8879    0.0000 N   0  0  0  0  0  0  0  0  0  0  0  0
   18.7293  -24.2018    0.0000 C   0  0  0  0  0  0  0  0  0  0  0  0
   25.3216  -22.8892    0.0000 C   0  0  0  0  0  0  0  0  0  0  0  0
   25.7607  -24.2172    0.0000 C   0  0  0  0  0  0  0  0  0  0  0  0
   27.1619  -24.2138    0.0000 C   0  0  0  0  0  0  0  0  0  0  0  0
   27.5915  -22.8800    0.0000 C   0  0  0  0  0  0  0  0  0  0  0  0
   26.4559  -22.0593    0.0000 C   0  0  0  0  0  0  0  0  0  0  0  0
   24.1031  -20.7511    0.0000 C   0  0  0  0  0  0  0  0  0  0  0  0
   25.3296  -20.0429    0.0000 C   0  0  0  0  0  0  0  0  0  0  0  0
   25.3296  -18.6266    0.0000 C   0  0  0  0  0  0  0  0  0  0  0  0
   24.1031  -17.9184    0.0000 C   0  0  0  0  0  0  0  0  0  0  0  0
   22.8766  -18.6266    0.0000 C   0  0  0  0  0  0  0  0  0  0  0  0
   22.8766  -20.0429    0.0000 C   0  0  0  0  0  0  0  0  0  0  0  0
   25.1880  -21.3176    0.0000 O   0  0  0  0  0  0  0  0  0  0  0  0
   17.0289  -22.1798    0.0000 C   0  0  0  0  0  0  0  0  0  0  0  0
   17.0289  -23.5960    0.0000 C   0  0  0  0  0  0  0  0  0  0  0  0
   17.5880  -25.3541    0.0000 Br  0  0  0  0  0  0  0  0  0  0  0  0
   46.7600  -20.0900    0.0000 O   0  0  0  0  0  0  0  0  0  0  0  0
   38.0100  -20.8600    0.0000 C   0  0  0  0  0  0  0  0  0  0  0  0
   39.2000  -21.5600    0.0000 C   0  0  0  0  0  0  0  0  0  0  0  0
   36.7500  -21.5600    0.0000 O   0  0  0  0  0  0  0  0  0  0  0  0
   38.0100  -19.4600    0.0000 O   0  0  0  0  0  0  0  0  0  0  0  0
   40.3900  -20.8600    0.0000 C   0  0  0  0  0  0  0  0  0  0  0  0
   41.5800  -21.5600    0.0000 C   0  0  0  0  0  0  0  0  0  0  0  0
   42.8400  -20.8600    0.0000 O   0  0  0  0  0  0  0  0  0  0  0  0
   41.5800  -22.8900    0.0000 O   0  0  0  0  0  0  0  0  0  0  0  0
   20.0200  -21.5600    0.0000 C   0  0  0  0  0  0  0  0  0  0  0  0
   18.8300  -22.2600    0.0000 C   0  0  0  0  0  0  0  0  0  0  0  0
   20.0200  -20.1600    0.0000 C   0  0  0  0  0  0  0  0  0  0  0  0
   21.2100  -22.2600    0.0000 C   0  0  0  0  0  0  0  0  0  0  0  0
   17.5700  -21.5600    0.0000 C   0  0  0  0  0  0  0  0  0  0  0  0
   18.8300  -19.4600    0.0000 C   0  0  0  0  0  0  0  0  0  0  0  0
   22.4700  -21.5600    0.0000 C   0  0  0  0  0  0  0  0  0  0  0  0
   21.2100  -23.6600    0.0000 O   0  0  0  0  0  0  0  0  0  0  0  0
   17.5700  -20.1600    0.0000 C   0  0  0  0  0  0  0  0  0  0  0  0
   16.3800  -22.2600    0.0000 N   0  0  0  0  0  0  0  0  0  0  0  0
   23.6600  -22.2600    0.0000 N   0  0  0  0  0  0  0  0  0  0  0  0
   16.3800  -19.4600    0.0000 O   0  0  0  0  0  0  0  0  0  0  0  0
   15.1900  -21.5600    0.0000 C   0  0  0  0  0  0  0  0  0  0  0  0
   24.8500  -21.5600    0.0000 C   0  0  0  0  0  0  0  0  0  0  0  0
   13.9300  -22.2600    0.0000 O   0  0  0  0  0  0  0  0  0  0  0  0
   26.0400  -22.2600    0.0000 C   0  0  0  0  0  0  0  0  0  0  0  0
   24.8500  -20.1600    0.0000 C   0  0  0  0  0  0  0  0  0  0  0  0
   27.3000  -21.5600    0.0000 C   0  0  0  0  0  0  0  0  0  0  0  0
   27.3000  -20.1600    0.0000 C   0  0  0  0  0  0  0  0  0  0  0  0
   28.4900  -22.2600    0.0000 C   0  0  0  0  0  0  0  0  0  0  0  0
   28.4900  -19.4600    0.0000 C   0  0  0  0  0  0  0  0  0  0  0  0
   29.6800  -21.5600    0.0000 C   0  0  0  0  0  0  0  0  0  0  0  0
   29.6800  -20.1600    0.0000 C   0  0  0  0  0  0  0  0  0  0  0  0
   30.9400  -19.3900    0.0000 O   0  0  0  0  0  0  0  0  0  0  0  0
   32.1300  -20.0900    0.0000 C   0  0  0  0  0  0  0  0  0  0  0  0
   46.6900  -21.9100    0.0000 O   0  0  0  0  0  0  0  0  0  0  0  0
   20.0200  -21.5600    0.0000 C   0  0  0  0  0  0  0  0  0  0  0  0
   18.8300  -22.2600    0.0000 C   0  0  0  0  0  0  0  0  0  0  0  0
   17.5700  -21.5600    0.0000 C   0  0  0  0  0  0  0  0  0  0  0  0
   17.5700  -20.1600    0.0000 C   0  0  0  0  0  0  0  0  0  0  0  0
   16.3800  -19.4600    0.0000 O   0  0  0  0  0  0  0  0  0  0  0  0
   18.8300  -19.4600    0.0000 C   0  0  0  0  0  0  0  0  0  0  0  0
   20.0200  -20.1600    0.0000 C   0  0  0  0  0  0  0  0  0  0  0  0
   16.3800  -22.2600    0.0000 N   0  0  0  0  0  0  0  0  0  0  0  0
   15.1900  -21.5600    0.0000 C   0  0  0  0  0  0  0  0  0  0  0  0
   13.9300  -22.2600    0.0000 O   0  0  0  0  0  0  0  0  0  0  0  0
   21.2100  -22.2600    0.0000 C   0  0  0  0  0  0  0  0  0  0  0  0
   22.4700  -21.5600    0.0000 C   0  0  0  0  0  0  0  0  0  0  0  0
   23.6600  -22.2600    0.0000 N   0  0  0  0  0  0  0  0  0  0  0  0
   24.8500  -21.5600    0.0000 C   0  0  0  0  0  0  0  0  0  0  0  0
   26.0400  -22.2600    0.0000 C   0  0  0  0  0  0  0  0  0  0  0  0
   27.3000  -21.5600    0.0000 C   0  0  0  0  0  0  0  0  0  0  0  0
   27.3000  -20.1600    0.0000 C   0  0  0  0  0  0  0  0  0  0  0  0
   28.4900  -19.4600    0.0000 C   0  0  0  0  0  0  0  0  0  0  0  0
   29.6800  -20.1600    0.0000 C   0  0  0  0  0  0  0  0  0  0  0  0
   30.9400  -19.3900    0.0000 O   0  0  0  0  0  0  0  0  0  0  0  0
   32.1300  -20.0900    0.0000 C   0  0  0  0  0  0  0  0  0  0  0  0
   29.6800  -21.5600    0.0000 C   0  0  0  0  0  0  0  0  0  0  0  0
   28.4900  -22.2600    0.0000 C   0  0  0  0  0  0  0  0  0  0  0  0
   24.8500  -20.1600    0.0000 C   0  0  0  0  0  0  0  0  0  0  0  0
   21.2100  -23.6600    0.0000 O   0  0  0  0  0  0  0  0  0  0  0  0
   42.5268  -20.4767    0.0000 C   0  0  0  0  0  0  0  0  0  0  0  0
   43.7345  -21.1769    0.0000 C   0  0  0  0  0  0  0  0  0  0  0  0
   41.3191  -21.1769    0.0000 O   0  0  0  0  0  0  0  0  0  0  0  0
   42.5268  -19.0825    0.0000 O   0  0  0  0  0  0  0  0  0  0  0  0
   44.9479  -20.4767    0.0000 C   0  0  0  0  0  0  0  0  0  0  0  0
   46.1556  -21.1769    0.0000 C   0  0  0  0  0  0  0  0  0  0  0  0
   47.3633  -20.4767    0.0000 O   0  0  0  0  0  0  0  0  0  0  0  0
   46.1556  -22.5713    0.0000 O   0  0  0  0  0  0  0  0  0  0  0  0
   24.5700  -21.2100    0.0000 C   0  0  0  0  0  0  0  0  0  0  0  0
   23.3800  -21.9100    0.0000 C   0  0  0  0  0  0  0  0  0  0  0  0
   24.5700  -19.8100    0.0000 C   0  0  0  0  0  0  0  0  0  0  0  0
   25.7600  -21.9100    0.0000 C   0  0  0  0  0  0  0  0  0  0  0  0
   22.1200  -21.2100    0.0000 C   0  0  0  0  0  0  0  0  0  0  0  0
   23.3800  -19.1100    0.0000 C   0  0  0  0  0  0  0  0  0  0  0  0
   27.0200  -21.2100    0.0000 C   0  0  0  0  0  0  0  0  0  0  0  0
   25.7600  -23.3100    0.0000 O   0  0  0  0  0  0  0  0  0  0  0  0
   22.1200  -19.8100    0.0000 C   0  0  0  0  0  0  0  0  0  0  0  0
   20.9300  -21.9100    0.0000 N   0  0  0  0  0  0  0  0  0  0  0  0
   28.2100  -21.9100    0.0000 N   0  0  0  0  0  0  0  0  0  0  0  0
   20.9300  -19.1100    0.0000 O   0  0  0  0  0  0  0  0  0  0  0  0
   19.7400  -21.2100    0.0000 C   0  0  0  0  0  0  0  0  0  0  0  0
   29.4000  -21.2100    0.0000 C   0  0  0  0  0  0  0  0  0  0  0  0
   18.4800  -21.9100    0.0000 O   0  0  0  0  0  0  0  0  0  0  0  0
   30.5900  -21.9100    0.0000 C   0  0  0  0  0  0  0  0  0  0  0  0
   29.4000  -19.8100    0.0000 C   0  0  0  0  0  0  0  0  0  0  0  0
   31.8500  -21.2100    0.0000 C   0  0  0  0  0  0  0  0  0  0  0  0
   31.8500  -19.8100    0.0000 C   0  0  0  0  0  0  0  0  0  0  0  0
   33.0400  -21.9100    0.0000 C   0  0  0  0  0  0  0  0  0  0  0  0
   33.0400  -19.1100    0.0000 C   0  0  0  0  0  0  0  0  0  0  0  0
   34.2300  -21.2100    0.0000 C   0  0  0  0  0  0  0  0  0  0  0  0
   34.2300  -19.8100    0.0000 C   0  0  0  0  0  0  0  0  0  0  0  0
   35.4900  -19.0400    0.0000 O   0  0  0  0  0  0  0  0  0  0  0  0
   36.6800  -19.7400    0.0000 C   0  0  0  0  0  0  0  0  0  0  0  0
   24.5700  -21.2100    0.0000 C   0  0  0  0  0  0  0  0  0  0  0  0
   23.3800  -21.9100    0.0000 C   0  0  0  0  0  0  0  0  0  0  0  0
   22.1200  -21.2100    0.0000 C   0  0  0  0  0  0  0  0  0  0  0  0
   22.1200  -19.8100    0.0000 C   0  0  0  0  0  0  0  0  0  0  0  0
   20.9300  -19.1100    0.0000 O   0  0  0  0  0  0  0  0  0  0  0  0
   23.3800  -19.1100    0.0000 C   0  0  0  0  0  0  0  0  0  0  0  0
   24.5700  -19.8100    0.0000 C   0  0  0  0  0  0  0  0  0  0  0  0
   20.9300  -21.9100    0.0000 N   0  0  0  0  0  0  0  0  0  0  0  0
   19.7400  -21.2100    0.0000 C   0  0  0  0  0  0  0  0  0  0  0  0
   18.4800  -21.9100    0.0000 O   0  0  0  0  0  0  0  0  0  0  0  0
   25.7600  -21.9100    0.0000 C   0  0  0  0  0  0  0  0  0  0  0  0
   27.0200  -21.2100    0.0000 C   0  0  0  0  0  0  0  0  0  0  0  0
   28.2100  -21.9100    0.0000 N   0  0  0  0  0  0  0  0  0  0  0  0
   29.4000  -21.2100    0.0000 C   0  0  0  0  0  0  0  0  0  0  0  0
   30.5900  -21.9100    0.0000 C   0  0  0  0  0  0  0  0  0  0  0  0
   31.8500  -21.2100    0.0000 C   0  0  0  0  0  0  0  0  0  0  0  0
   31.8500  -19.8100    0.0000 C   0  0  0  0  0  0  0  0  0  0  0  0
   33.0400  -19.1100    0.0000 C   0  0  0  0  0  0  0  0  0  0  0  0
   34.2300  -19.8100    0.0000 C   0  0  0  0  0  0  0  0  0  0  0  0
   35.4900  -19.0400    0.0000 O   0  0  0  0  0  0  0  0  0  0  0  0
   36.6800  -19.7400    0.0000 C   0  0  0  0  0  0  0  0  0  0  0  0
   34.2300  -21.2100    0.0000 C   0  0  0  0  0  0  0  0  0  0  0  0
   33.0400  -21.9100    0.0000 C   0  0  0  0  0  0  0  0  0  0  0  0
   29.4000  -19.8100    0.0000 C   0  0  0  0  0  0  0  0  0  0  0  0
   25.7600  -23.3100    0.0000 O   0  0  0  0  0  0  0  0  0  0  0  0
  1  2  1  0
  2  3  1  0
  3  4  2  0
  4  5  1  0
  5  6  1  0
  1  6  2  0
  4  7  1  0
  7  8  1  0
  9  8  1  6
  9 10  1  0
  5 10  1  0
  9 11  1  0
 11 12  1  0
 12 13  1  0
 13 14  1  0
 10 14  1  1
 11 15  1  1
 16 15  1  6
 16 17  1  0
 12 17  1  0
  2 18  2  0
  5 19  1  1
 14 20  1  1
 12 21  1  1
 17 22  1  1
 17 23  1  0
 16 24  1  0
 23 25  1  0
 25 24  1  0
 26 27  1  0
 26 25  1  0
 27 28  1  0
 22 29  2  0
 22 30  1  0
 30 31  1  0
 32 33  1  0
 33 34  1  0
 33 35  2  0
 34 36  1  0
 36 37  1  0
 36 38  1  0
 37 39  1  0
 38 40  1  0
 39 40  1  0
 32 41  1  0
 41 42  1  0
 42 43  1  0
 43 44  1  0
 44 45  1  0
 41 45  1  0
 32 46  1  0
 46 47  2  0
 47 48  1  0
 48 49  2  0
 49 50  1  0
 50 51  2  0
 46 51  1  0
 32 52  1  0
 39 53  1  0
 39 54  1  0
 57 58  1  0
 57 59  1  0
 57 60  2  0
 58 61  2  0
 61 62  1  0
 62 63  1  0
 62 64  2  0
 65 66  2  0
 65 67  1  0
 65 68  1  0
 66 69  1  0
 67 70  2  0
 68 71  1  0
 68 72  1  0
 69 73  2  0
 69 74  1  0
 71 75  1  0
 73 76  1  0
 74 77  1  0
 75 78  1  0
 77 79  2  0
 78 80  1  0
 78 81  1  0
 80 82  1  0
 82 83  2  0
 82 84  1  0
 83 85  1  0
 84 86  2  0
 85 87  2  0
 87 88  1  0
 88 89  1  0
 70 73  1  0
 86 87  1  0
 91 92  2  0
 91 97  1  0
 91101  1  0
 92 93  1  0
 97 96  2  0
101102  1  0
101115  1  0
 93 94  2  0
 93 98  1  0
102103  1  0
 94 95  1  0
 98 99  1  0
103104  1  0
 99100  2  0
104105  1  0
104114  1  0
105106  1  0
106107  2  0
106113  1  0
107108  1  0
113112  2  0
108109  2  0
109110  1  0
110111  1  0
 96 94  1  0
112109  1  0
116117  1  0
116118  1  0
116119  2  0
117120  2  0
120121  1  0
121122  1  0
121123  2  0
124125  2  0
124126  1  0
124127  1  0
125128  1  0
126129  2  0
127130  1  0
127131  1  0
128132  2  0
128133  1  0
130134  1  0
132135  1  0
133136  1  0
134137  1  0
136138  2  0
137139  1  0
137140  1  0
139141  1  0
141142  2  0
141143  1  0
142144  1  0
143145  2  0
144146  2  0
146147  1  0
147148  1  0
129132  1  0
145146  1  0
149150  2  0
149155  1  0
149159  1  0
150151  1  0
155154  2  0
159160  1  0
159173  1  0
151152  2  0
151156  1  0
160161  1  0
152153  1  0
156157  1  0
161162  1  0
157158  2  0
162163  1  0
162172  1  0
163164  1  0
164165  2  0
164171  1  0
165166  1  0
171170  2  0
166167  2  0
167168  1  0
168169  1  0
154152  1  0
170167  1  0
M  CHG  2  39   1  55  -1
M  END
