 
     RDKit          2D

 54 59  0  0  1  0  0  0  0  0999 V2000
   19.1100  -17.9200    0.0000 C   0  0  0  0  0  0  0  0  0  0  0  0
   17.9900  -17.0800    0.0000 O   0  0  0  0  0  0  0  0  0  0  0  0
   18.6900  -19.2500    0.0000 C   0  0  0  0  0  0  0  0  0  0  0  0
   16.8700  -17.9200    0.0000 C   0  0  0  0  0  0  0  0  0  0  0  0
   17.2900  -19.2500    0.0000 S   0  0  0  0  0  0  0  0  0  0  0  0
   15.6800  -17.2900    0.0000 C   0  0  0  0  0  0  0  0  0  0  0  0
   14.3500  -18.1300    0.0000 O   0  0  0  0  0  0  0  0  0  0  0  0
   20.3000  -15.8200    0.0000 C   0  0  0  0  0  0  0  0  0  0  0  0
   20.3000  -17.2200    0.0000 N   0  0  0  0  0  0  0  0  0  0  0  0
   21.4900  -17.9200    0.0000 C   0  0  0  0  0  0  0  0  0  0  0  0
   22.7500  -17.2200    0.0000 N   0  0  0  0  0  0  0  0  0  0  0  0
   22.7500  -15.8200    0.0000 C   0  0  0  0  0  0  0  0  0  0  0  0
   21.4900  -15.1200    0.0000 C   0  0  0  0  0  0  0  0  0  0  0  0
   21.4900  -19.3200    0.0000 O   0  0  0  0  0  0  0  0  0  0  0  0
   23.9400  -15.1200    0.0000 N   0  0  0  0  0  0  0  0  0  0  0  0
   16.4500  -10.0100    0.0000 C   0  0  0  0  0  0  0  0  0  0  0  0
   15.6100   -8.8900    0.0000 C   0  0  0  0  0  0  0  0  0  0  0  0
   15.9600   -7.5600    0.0000 C   0  0  0  0  0  0  0  0  0  0  0  0
   17.2200   -7.0000    0.0000 N   0  0  0  0  0  0  0  0  0  0  0  0
   17.8500  -10.0100    0.0000 N   0  0  0  0  0  0  0  0  0  0  0  0
   18.4800   -7.6300    0.0000 C   0  0  0  0  0  0  0  0  0  0  0  0
   18.7600   -8.9600    0.0000 C   0  0  0  0  0  0  0  0  0  0  0  0
   14.9100   -6.5800    0.0000 N   0  0  0  0  0  0  0  0  0  0  0  0
   13.5800   -7.0000    0.0000 C   0  0  0  0  0  0  0  0  0  0  0  0
   13.2300   -8.3300    0.0000 C   0  0  0  0  0  0  0  0  0  0  0  0
   14.2800   -9.3100    0.0000 C   0  0  0  0  0  0  0  0  0  0  0  0
   20.0900   -9.3800    0.0000 C   0  0  0  0  0  0  0  0  0  0  0  0
   21.1400   -8.4700    0.0000 C   0  0  0  0  0  0  0  0  0  0  0  0
   20.8600   -7.0700    0.0000 C   0  0  0  0  0  0  0  0  0  0  0  0
   19.5300   -6.6500    0.0000 N   0  0  0  0  0  0  0  0  0  0  0  0
   15.8200  -11.2700    0.0000 O   0  0  0  0  0  0  0  0  0  0  0  0
   17.2200   -5.6000    0.0000 C   0  0  0  0  0  0  0  0  0  0  0  0
   20.3700  -10.7800    0.0000 C   0  0  0  0  0  0  0  0  0  0  0  0
   17.9200   -4.4100    0.0000 C   0  0  0  0  0  0  0  0  0  0  0  0
   16.5200   -4.4100    0.0000 C   0  0  0  0  0  0  0  0  0  0  0  0
   18.8657  -16.2961    0.0000 C   0  0  0  0  0  0  0  0  0  0  0  0
   20.5359  -15.5648    0.0000 N   0  0  0  0  0  0  0  0  0  0  0  0
   18.4295  -17.5962    0.0000 C   0  0  0  0  0  0  0  0  0  0  0  0
   17.7601  -15.4854    0.0000 O   0  0  0  0  0  0  0  0  0  0  0  0
   21.6329  -16.2525    0.0000 C   0  0  0  0  0  0  0  0  0  0  0  0
   20.4803  -14.1952    0.0000 C   0  0  0  0  0  0  0  0  0  0  0  0
   17.0654  -17.5917    0.0000 C   0  0  0  0  0  0  0  0  0  0  0  0
   16.6491  -16.2888    0.0000 C   0  0  0  0  0  0  0  0  0  0  0  0
   22.8245  -15.5863    0.0000 N   0  0  0  0  0  0  0  0  0  0  0  0
   21.6194  -17.6179    0.0000 O   0  0  0  0  0  0  0  0  0  0  0  0
   21.6659  -13.5204    0.0000 C   0  0  0  0  0  0  0  0  0  0  0  0
   16.2659  -18.6975    0.0000 N   0  0  0  0  0  0  0  0  0  0  0  0
   15.3431  -15.8696    0.0000 C   0  0  0  0  0  0  0  0  0  0  0  0
   22.8512  -14.2198    0.0000 C   0  0  0  0  0  0  0  0  0  0  0  0
   21.6815  -12.1564    0.0000 C   0  0  0  0  0  0  0  0  0  0  0  0
   14.3229  -16.7755    0.0000 O   0  0  0  0  0  0  0  0  0  0  0  0
   24.0708  -13.6122    0.0000 O   0  0  0  0  0  0  0  0  0  0  0  0
   15.3644  -19.7657    0.0000 N   0  0  0  0  0  0  0  0  0  0  0  0
   14.3822  -20.9233    0.0000 N   0  0  0  0  0  0  0  0  0  0  0  0
  1  2  1  0
  1  3  1  0
  2  4  1  0
  3  5  1  0
  4  6  1  6
  6  7  1  0
  4  5  1  0
  8  9  1  0
  9 10  1  0
 10 11  1  0
 11 12  2  0
 12 13  1  0
  8 13  2  0
  1  9  1  6
 10 14  2  0
 12 15  1  0
 18 19  1  0
 16 20  1  0
 19 21  1  0
 17 18  2  0
 20 22  1  0
 16 17  1  0
 21 22  2  0
 18 23  1  0
 23 24  2  0
 24 25  1  0
 25 26  2  0
 17 26  1  0
 22 27  1  0
 27 28  2  0
 28 29  1  0
 29 30  2  0
 21 30  1  0
 16 31  2  0
 19 32  1  0
 27 33  1  0
 34 35  1  0
 35 32  1  0
 32 34  1  0
 36 37  1  1
 36 38  1  0
 36 39  1  0
 37 40  1  0
 37 41  1  0
 38 42  1  0
 39 43  1  0
 40 44  1  0
 40 45  2  0
 41 46  2  0
 42 47  1  6
 43 48  1  1
 44 49  1  0
 46 50  1  0
 48 51  1  0
 49 52  2  0
 42 43  1  0
 46 49  1  0
 47 53  2  0
 53 54  2  0
M  CHG  2  53   1  54  -1
M  END
