 
     RDKit          2D

 27 27  0  0  0  0  0  0  0  0999 V2000
   16.9456  -13.9010    0.0000 C   0  0  0  0  0  0  0  0  0  0  0  0
   16.9456  -15.3018    0.0000 C   0  0  0  0  0  0  0  0  0  0  0  0
   15.7317  -13.2006    0.0000 C   0  0  0  0  0  0  0  0  0  0  0  0
   18.6847  -13.9010    0.0000 C   0  0  0  0  0  0  0  0  0  0  0  0
   16.9399  -12.5060    0.0000 C   0  0  0  0  0  0  0  0  0  0  0  0
   15.7317  -16.0079    0.0000 N   0  0  0  0  0  0  0  0  0  0  0  0
   18.1597  -16.0079    0.0000 O   0  0  0  0  0  0  0  0  0  0  0  0
   14.5119  -13.9010    0.0000 N   0  0  0  0  0  0  0  0  0  0  0  0
   15.7317  -11.7998    0.0000 O   0  0  0  0  0  0  0  0  0  0  0  0
   19.6534  -12.6928    0.0000 C   0  0  0  0  0  0  0  0  0  0  0  0
   18.1538  -11.8056    0.0000 C   0  0  0  0  0  0  0  0  0  0  0  0
   14.5119  -15.3018    0.0000 C   0  0  0  0  0  0  0  0  0  0  0  0
   21.0542  -12.6928    0.0000 C   0  0  0  0  0  0  0  0  0  0  0  0
   18.1538  -10.4108    0.0000 C   0  0  0  0  0  0  0  0  0  0  0  0
   13.2980  -16.0079    0.0000 O   0  0  0  0  0  0  0  0  0  0  0  0
   19.1404  -11.3740    0.0000 C   0  0  0  0  0  0  0  0  0  0  0  0
   21.1806  -16.6437    0.0000 C   0  0  0  0  0  0  0  0  0  0  0  0
   21.1806  -18.0466    0.0000 C   0  0  0  0  0  0  0  0  0  0  0  0
   19.9699  -15.9511    0.0000 C   0  0  0  0  0  0  0  0  0  0  0  0
   22.3914  -15.9511    0.0000 N   0  0  0  0  0  0  0  0  0  0  0  0
   19.9699  -18.7509    0.0000 C   0  0  0  0  0  0  0  0  0  0  0  0
   18.7534  -16.6437    0.0000 C   0  0  0  0  0  0  0  0  0  0  0  0
   23.6080  -16.6496    0.0000 C   0  0  0  0  0  0  0  0  0  0  0  0
   18.7534  -18.0466    0.0000 C   0  0  0  0  0  0  0  0  0  0  0  0
   24.8186  -15.9511    0.0000 C   0  0  0  0  0  0  0  0  0  0  0  0
   23.6020  -18.0466    0.0000 O   0  0  0  0  0  0  0  0  0  0  0  0
   17.5425  -18.7509    0.0000 O   0  0  0  0  0  0  0  0  0  0  0  0
  1  2  1  0
  1  3  1  0
  1  4  1  0
  1  5  1  0
  2  6  1  0
  2  7  2  0
  3  8  1  0
  3  9  2  0
  4 10  1  0
  5 11  1  0
  6 12  1  0
 10 13  1  0
 11 14  2  0
 12 15  2  0
  8 12  1  0
 10 16  1  0
 17 18  2  0
 17 19  1  0
 17 20  1  0
 18 21  1  0
 19 22  2  0
 20 23  1  0
 21 24  2  0
 23 25  1  0
 23 26  2  0
 24 27  1  0
 22 24  1  0
M  END
