 
     RDKit          2D

129136  0  0  1  0  0  0  0  0999 V2000
   22.1075  -19.5906    0.0000 C   0  0  0  0  0  0  0  0  0  0  0  0
   22.1075  -21.0113    0.0000 C   0  0  0  0  0  0  0  0  0  0  0  0
   24.4754  -20.9437    0.0000 O   0  0  0  0  0  0  0  0  0  0  0  0
   24.4754  -19.5906    0.0000 C   0  0  0  0  0  0  0  0  0  0  0  0
   23.2576  -18.9141    0.0000 C   0  0  0  0  0  0  0  0  0  0  0  0
   26.7756  -19.5906    0.0000 C   0  0  0  0  0  0  0  0  0  0  0  0
   25.6255  -18.9141    0.0000 C   0  0  0  0  0  0  0  0  0  0  0  0
   27.9933  -21.6879    0.0000 C   0  0  0  0  0  0  0  0  0  0  0  0
   29.1435  -21.0113    0.0000 C   0  0  0  0  0  0  0  0  0  0  0  0
   29.1435  -19.5906    0.0000 C   0  0  0  0  0  0  0  0  0  0  0  0
   27.9933  -18.9141    0.0000 C   0  0  0  0  0  0  0  0  0  0  0  0
   25.6255  -17.5610    0.0000 C   0  0  0  0  0  0  0  0  0  0  0  0
   23.2576  -17.5610    0.0000 C   0  0  0  0  0  0  0  0  0  0  0  0
   20.9574  -18.9141    0.0000 O   0  0  0  0  0  0  0  0  0  0  0  0
   30.2936  -21.6879    0.0000 C   0  0  0  0  0  0  0  0  0  0  0  0
   26.8432  -21.0113    0.0000 O   0  0  0  0  0  0  0  0  0  0  0  0
   27.9933  -23.3116    0.0000 N   0  0  0  0  0  0  0  0  0  0  0  0
   20.9574  -21.6879    0.0000 C   0  0  0  0  0  0  0  0  0  0  0  0
   19.8073  -21.0113    0.0000 O   0  0  0  0  0  0  0  0  0  0  0  0
   20.9574  -23.3116    0.0000 C   0  0  0  0  0  0  0  0  0  0  0  0
   26.8432  -23.9881    0.0000 C   0  0  0  0  0  0  0  0  0  0  0  0
   26.8432  -25.3412    0.0000 C   0  0  0  0  0  0  0  0  0  0  0  0
   25.6255  -23.3116    0.0000 C   0  0  0  0  0  0  0  0  0  0  0  0
   24.4754  -23.9881    0.0000 C   0  0  0  0  0  0  0  0  0  0  0  0
   24.4754  -25.3412    0.0000 C   0  0  0  0  0  0  0  0  0  0  0  0
   25.6255  -26.0177    0.0000 C   0  0  0  0  0  0  0  0  0  0  0  0
   23.3252  -23.3116    0.0000 C   0  0  0  0  0  0  0  0  0  0  0  0
   22.1075  -23.9881    0.0000 C   0  0  0  0  0  0  0  0  0  0  0  0
   22.1075  -25.3412    0.0000 C   0  0  0  0  0  0  0  0  0  0  0  0
   23.3252  -26.0177    0.0000 C   0  0  0  0  0  0  0  0  0  0  0  0
   25.6255  -21.9585    0.0000 O   0  0  0  0  0  0  0  0  0  0  0  0
   23.3252  -21.9585    0.0000 O   0  0  0  0  0  0  0  0  0  0  0  0
   20.9574  -19.9289    0.0000 C   0  0  0  0  0  0  0  0  0  0  0  0
   18.5895  -20.3348    0.0000 C   0  0  0  0  0  0  0  0  0  0  0  0
   17.4394  -21.0113    0.0000 C   0  0  0  0  0  0  0  0  0  0  0  0
   18.5895  -18.9817    0.0000 O   0  0  0  0  0  0  0  0  0  0  0  0
   19.8073  -23.9881    0.0000 C   0  0  0  0  0  0  0  0  0  0  0  0
   18.6571  -23.3116    0.0000 O   0  0  0  0  0  0  0  0  0  0  0  0
   19.8073  -25.3412    0.0000 C   0  0  0  0  0  0  0  0  0  0  0  0
   19.8073  -22.3644    0.0000 C   0  0  0  0  0  0  0  0  0  0  0  0
   17.5070  -23.9881    0.0000 C   0  0  0  0  0  0  0  0  0  0  0  0
   18.6571  -26.0177    0.0000 C   0  0  0  0  0  0  0  0  0  0  0  0
   18.6571  -27.3708    0.0000 O   0  0  0  0  0  0  0  0  0  0  0  0
   20.9574  -26.0177    0.0000 O   0  0  0  0  0  0  0  0  0  0  0  0
   20.9574  -27.3708    0.0000 C   0  0  0  0  0  0  0  0  0  0  0  0
   23.3252  -27.3708    0.0000 C   0  0  0  0  0  0  0  0  0  0  0  0
   20.9574  -28.7238    0.0000 C   0  0  0  0  0  0  0  0  0  0  0  0
   22.1075  -22.6350    0.0000 C   0  0  0  0  0  0  0  0  0  0  0  0
   25.6255  -27.3708    0.0000 O   0  0  0  0  0  0  0  0  0  0  0  0
   24.4077  -28.0473    0.0000 O   0  0  0  0  0  0  0  0  0  0  0  0
   28.0244  -26.0366    0.0000 C   0  0  0  0  0  0  0  0  0  0  0  0
   29.2227  -25.3581    0.0000 N   0  0  0  0  0  0  0  0  0  0  0  0
   30.3970  -26.0493    0.0000 N   0  0  0  0  0  0  0  0  0  0  0  0
   30.3852  -27.4400    0.0000 C   0  0  0  0  0  0  0  0  0  0  0  0
   31.5917  -28.1502    0.0000 C   0  0  0  0  0  0  0  0  0  0  0  0
   32.8100  -27.4606    0.0000 N   0  0  0  0  0  0  0  0  0  0  0  0
   32.8218  -26.0699    0.0000 C   0  0  0  0  0  0  0  0  0  0  0  0
   31.6154  -25.3596    0.0000 C   0  0  0  0  0  0  0  0  0  0  0  0
   34.0220  -28.1742    0.0000 C   0  0  0  0  0  0  0  0  0  0  0  0
   20.5100  -14.4200    0.0000 C   0  0  0  0  0  0  0  0  0  0  0  0
   20.5100  -15.8200    0.0000 C   0  0  0  0  0  0  0  0  0  0  0  0
   22.8900  -15.7500    0.0000 O   0  0  0  0  0  0  0  0  0  0  0  0
   22.8900  -14.4200    0.0000 C   0  0  0  0  0  0  0  0  0  0  0  0
   21.6300  -13.7900    0.0000 C   0  0  0  0  0  0  0  0  0  0  0  0
   25.2000  -14.4200    0.0000 C   0  0  0  0  0  0  0  0  0  0  0  0
   24.0100  -13.7900    0.0000 C   0  0  0  0  0  0  0  0  0  0  0  0
   26.3900  -16.5200    0.0000 C   0  0  0  0  0  0  0  0  0  0  0  0
   27.5100  -15.8200    0.0000 C   0  0  0  0  0  0  0  0  0  0  0  0
   27.5100  -14.4200    0.0000 C   0  0  0  0  0  0  0  0  0  0  0  0
   26.3900  -13.7900    0.0000 C   0  0  0  0  0  0  0  0  0  0  0  0
   24.0100  -12.3900    0.0000 C   0  0  0  0  0  0  0  0  0  0  0  0
   21.6300  -12.3900    0.0000 C   0  0  0  0  0  0  0  0  0  0  0  0
   19.3900  -13.7900    0.0000 O   0  0  0  0  0  0  0  0  0  0  0  0
   28.7000  -16.5200    0.0000 C   0  0  0  0  0  0  0  0  0  0  0  0
   25.2700  -15.8200    0.0000 O   0  0  0  0  0  0  0  0  0  0  0  0
   26.3900  -18.1300    0.0000 N   0  0  0  0  0  0  0  0  0  0  0  0
   19.3900  -16.5200    0.0000 C   0  0  0  0  0  0  0  0  0  0  0  0
   18.2000  -15.8200    0.0000 O   0  0  0  0  0  0  0  0  0  0  0  0
   19.3900  -18.1300    0.0000 C   0  0  0  0  0  0  0  0  0  0  0  0
   25.2700  -18.8300    0.0000 C   0  0  0  0  0  0  0  0  0  0  0  0
   25.2700  -20.1600    0.0000 C   0  0  0  0  0  0  0  0  0  0  0  0
   24.0100  -18.1300    0.0000 C   0  0  0  0  0  0  0  0  0  0  0  0
   22.8900  -18.8300    0.0000 C   0  0  0  0  0  0  0  0  0  0  0  0
   22.8900  -20.1600    0.0000 C   0  0  0  0  0  0  0  0  0  0  0  0
   24.0100  -20.8600    0.0000 C   0  0  0  0  0  0  0  0  0  0  0  0
   21.7000  -18.1300    0.0000 C   0  0  0  0  0  0  0  0  0  0  0  0
   20.5100  -18.8300    0.0000 C   0  0  0  0  0  0  0  0  0  0  0  0
   20.5100  -20.1600    0.0000 C   0  0  0  0  0  0  0  0  0  0  0  0
   21.7000  -20.8600    0.0000 C   0  0  0  0  0  0  0  0  0  0  0  0
   24.0100  -16.8000    0.0000 O   0  0  0  0  0  0  0  0  0  0  0  0
   21.7000  -16.8000    0.0000 O   0  0  0  0  0  0  0  0  0  0  0  0
   19.3900  -14.7700    0.0000 C   0  0  0  0  0  0  0  0  0  0  0  0
   17.0100  -15.1900    0.0000 C   0  0  0  0  0  0  0  0  0  0  0  0
   15.8900  -15.8200    0.0000 C   0  0  0  0  0  0  0  0  0  0  0  0
   17.0100  -13.7900    0.0000 O   0  0  0  0  0  0  0  0  0  0  0  0
   18.2000  -18.8300    0.0000 C   0  0  0  0  0  0  0  0  0  0  0  0
   17.0800  -18.1300    0.0000 O   0  0  0  0  0  0  0  0  0  0  0  0
   18.2000  -20.1600    0.0000 C   0  0  0  0  0  0  0  0  0  0  0  0
   18.2000  -17.2200    0.0000 C   0  0  0  0  0  0  0  0  0  0  0  0
   15.8900  -18.8300    0.0000 C   0  0  0  0  0  0  0  0  0  0  0  0
   17.0800  -20.8600    0.0000 C   0  0  0  0  0  0  0  0  0  0  0  0
   17.0800  -22.1900    0.0000 O   0  0  0  0  0  0  0  0  0  0  0  0
   19.3900  -20.8600    0.0000 O   0  0  0  0  0  0  0  0  0  0  0  0
   19.3900  -22.1900    0.0000 C   0  0  0  0  0  0  0  0  0  0  0  0
   21.7000  -22.1900    0.0000 C   0  0  0  0  0  0  0  0  0  0  0  0
   19.3900  -23.5200    0.0000 C   0  0  0  0  0  0  0  0  0  0  0  0
   20.5100  -17.5000    0.0000 C   0  0  0  0  0  0  0  0  0  0  0  0
   24.0100  -22.1900    0.0000 O   0  0  0  0  0  0  0  0  0  0  0  0
   22.8200  -22.8900    0.0000 O   0  0  0  0  0  0  0  0  0  0  0  0
   26.3900  -20.8600    0.0000 C   0  0  0  0  0  0  0  0  0  0  0  0
   27.5800  -20.1600    0.0000 N   0  0  0  0  0  0  0  0  0  0  0  0
   28.7700  -20.8600    0.0000 N   0  0  0  0  0  0  0  0  0  0  0  0
   28.7700  -22.2600    0.0000 C   0  0  0  0  0  0  0  0  0  0  0  0
   29.9600  -22.9600    0.0000 C   0  0  0  0  0  0  0  0  0  0  0  0
   31.2200  -22.2600    0.0000 N   0  0  0  0  0  0  0  0  0  0  0  0
   31.2200  -20.8600    0.0000 C   0  0  0  0  0  0  0  0  0  0  0  0
   30.0300  -20.1600    0.0000 C   0  0  0  0  0  0  0  0  0  0  0  0
   32.4100  -22.9600    0.0000 C   0  0  0  0  0  0  0  0  0  0  0  0
   33.9500  -17.8500    0.0000 Na  0  0  0  0  0  1  0  0  0  0  0  0
   22.4877  -16.7300    0.0000 C   0  0  0  0  0  0  0  0  0  0  0  0
   23.6995  -17.4291    0.0000 C   0  0  0  0  0  0  0  0  0  0  0  0
   21.2816  -17.4291    0.0000 C   0  0  0  0  0  0  0  0  0  0  0  0
   22.4877  -15.3316    0.0000 C   0  0  0  0  0  0  0  0  0  0  0  0
   24.9115  -16.7300    0.0000 N   0  0  0  0  0  0  0  0  0  0  0  0
   23.6995  -18.8275    0.0000 O   0  0  0  0  0  0  0  0  0  0  0  0
   20.0638  -16.7300    0.0000 C   0  0  0  0  0  0  0  0  0  0  0  0
   21.2816  -14.6266    0.0000 C   0  0  0  0  0  0  0  0  0  0  0  0
   26.1293  -17.4291    0.0000 N   0  0  0  0  0  0  0  0  0  0  0  0
   20.0638  -15.3316    0.0000 N   0  0  0  0  0  0  0  0  0  0  0  0
  1  2  1  0
  4  3  1  6
  4  5  1  0
  1  5  1  0
  6  7  1  0
  4  7  1  0
  8  9  1  0
  9 10  2  0
 10 11  1  0
  6 11  2  0
  7 12  1  1
  5 13  1  6
  1 14  1  6
  9 15  1  0
  8 16  2  0
  8 17  1  0
  2 18  1  0
 18 19  1  1
 18 20  1  0
 17 21  1  0
 21 22  1  0
 21 23  2  0
 23 24  1  0
 24 25  1  0
 25 26  1  0
 24 27  2  0
 27 28  1  0
 28 29  2  0
 29 30  1  0
 25 30  2  0
 23 31  1  0
 27 32  1  0
  2 33  1  1
 19 34  1  0
 34 35  1  0
 34 36  2  0
 26 22  2  0
 20 37  1  0
 37 38  1  6
 37 39  1  0
 20 40  1  6
 38 41  1  0
 39 42  2  0
 42 43  1  0
 29 44  1  0
 44 45  1  0
 43 45  1  0
 30 46  1  0
 45 46  1  0
 45 47  1  6
 28 48  1  0
 26 49  1  0
 50 46  2  0
 22 51  1  0
 51 52  2  0
 52 53  1  0
 53 54  1  0
 54 55  1  0
 55 56  1  0
 56 57  1  0
 57 58  1  0
 53 58  1  0
 56 59  1  0
 60 61  1  0
 63 62  1  6
 63 64  1  0
 60 64  1  0
 65 66  1  0
 63 66  1  0
 67 68  1  0
 68 69  2  0
 69 70  1  0
 65 70  2  0
 66 71  1  1
 64 72  1  6
 60 73  1  6
 68 74  1  0
 67 75  2  0
 67 76  1  0
 61 77  1  0
 77 78  1  1
 77 79  1  0
 76 80  1  0
 80 81  1  0
 80 82  2  0
 82 83  1  0
 83 84  1  0
 84 85  1  0
 83 86  2  0
 86 87  1  0
 87 88  2  0
 88 89  1  0
 84 89  2  0
 82 90  1  0
 86 91  1  0
 61 92  1  1
 78 93  1  0
 93 94  1  0
 93 95  2  0
 85 81  2  0
 79 96  1  0
 96 97  1  6
 96 98  1  0
 79 99  1  6
 97100  1  0
 98101  2  0
101102  1  0
 88103  1  0
103104  1  0
102104  1  0
 89105  1  0
104105  1  0
104106  1  6
 87107  1  0
 85108  1  0
109105  2  0
 81110  1  0
110111  2  0
111112  1  0
112113  1  0
113114  1  0
114115  1  0
115116  1  0
116117  1  0
112117  1  0
115118  1  0
120121  1  0
120122  2  0
120123  1  0
121124  1  0
121125  2  0
122126  1  0
123127  2  0
124128  1  0
126129  2  0
127129  1  0
M  END
