 
 
 
 54 60  0  0  1  0  0  0  0  0999 V2000
   10.6505  -12.1920    0.0000 C   0  0  0  0  0  0  0  0  0  0  0  0
   10.6505  -13.5934    0.0000 C   0  0  0  0  0  0  0  0  0  0  0  0
   11.8417  -14.2941    0.0000 O   0  0  0  0  0  0  0  0  0  0  0  0
   13.1029  -12.1920    0.0000 C   0  0  0  0  0  0  0  0  0  0  0  0
   11.8417  -11.4914    0.0000 C   0  0  0  0  0  0  0  0  0  0  0  0
   15.4853  -12.1920    0.0000 C   0  0  0  0  0  0  0  0  0  0  0  0
   14.2941  -11.4914    0.0000 C   0  0  0  0  0  0  0  0  0  0  0  0
   16.7465  -14.2941    0.0000 O   0  0  0  0  0  0  0  0  0  0  0  0
   17.9377  -13.5934    0.0000 C   0  0  0  0  0  0  0  0  0  0  0  0
   17.9377  -12.1920    0.0000 C   0  0  0  0  0  0  0  0  0  0  0  0
   16.7465  -11.4914    0.0000 C   0  0  0  0  0  0  0  0  0  0  0  0
   19.1289  -14.2941    0.0000 N   0  0  0  0  0  0  0  0  0  0  0  0
   20.3901  -13.5934    0.0000 C   0  0  0  0  0  0  0  0  0  0  0  0
   20.3901  -12.1920    0.0000 C   0  0  0  0  0  0  0  0  0  0  0  0
   19.1289  -11.4914    0.0000 N   0  0  0  0  0  0  0  0  0  0  0  0
   21.5813  -14.2941    0.0000 C   0  0  0  0  0  0  0  0  0  0  0  0
   22.7725  -13.5934    0.0000 C   0  0  0  0  0  0  0  0  0  0  0  0
   22.7725  -12.1920    0.0000 C   0  0  0  0  0  0  0  0  0  0  0  0
   21.5813  -11.4914    0.0000 C   0  0  0  0  0  0  0  0  0  0  0  0
    9.4593  -12.8927    0.0000 C   0  0  0  0  0  0  0  0  0  0  0  0
   11.8417  -15.6955    0.0000 C   0  0  0  0  0  0  0  0  0  0  0  0
   10.5805  -16.3962    0.0000 O   0  0  0  0  0  0  0  0  0  0  0  0
   11.7716  -18.4983    0.0000 C   0  0  0  0  0  0  0  0  0  0  0  0
   13.0329  -17.7976    0.0000 C   0  0  0  0  0  0  0  0  0  0  0  0
   13.0329  -16.3962    0.0000 N   0  0  0  0  0  0  0  0  0  0  0  0
   10.5805  -17.7976    0.0000 C   0  0  0  0  0  0  0  0  0  0  0  0
   11.7716  -19.8997    0.0000 C   0  0  0  0  0  0  0  0  0  0  0  0
   10.5805  -19.1990    0.0000 C   0  0  0  0  0  0  0  0  0  0  0  0
   14.2241  -18.4983    0.0000 C   0  0  0  0  0  0  0  0  0  0  0  0
   14.2241  -19.8997    0.0000 O   0  0  0  0  0  0  0  0  0  0  0  0
   16.7465  -16.0459    0.0000 C   0  0  0  0  0  0  0  0  0  0  0  0
   15.4152  -16.4663    0.0000 C   0  0  0  0  0  0  0  0  0  0  0  0
   15.4152  -17.8677    0.0000 N   0  0  0  0  0  0  0  0  0  0  0  0
   16.7465  -18.2881    0.0000 C   0  0  0  0  0  0  0  0  0  0  0  0
   17.5874  -17.1670    0.0000 C   0  0  0  0  0  0  0  0  0  0  0  0
   23.9637  -14.2941    0.0000 O   0  0  0  0  0  0  0  0  0  0  0  0
   25.1549  -13.5934    0.0000 C   0  0  0  0  0  0  0  0  0  0  0  0
   20.4602  -19.0588    0.0000 C   0  0  0  0  0  0  0  0  0  0  0  0
   21.6514  -18.3581    0.0000 C   0  0  0  0  0  0  0  0  0  0  0  0
   22.8426  -19.1289    0.0000 N   0  0  0  0  0  0  0  0  0  0  0  0
   21.6514  -16.8867    0.0000 O   0  0  0  0  0  0  0  0  0  0  0  0
   19.7595  -20.1799    0.0000 C   0  0  0  0  0  0  0  0  0  0  0  0
   21.0908  -20.1799    0.0000 C   0  0  0  0  0  0  0  0  0  0  0  0
   24.2440  -18.4282    0.0000 S   0  0  0  0  0  0  0  0  0  0  0  0
   25.3651  -19.1990    0.0000 C   0  0  0  0  0  0  0  0  0  0  0  0
   24.8746  -17.2370    0.0000 O   0  0  0  0  0  0  0  0  0  0  0  0
   23.4732  -17.2370    0.0000 O   0  0  0  0  0  0  0  0  0  0  0  0
   26.0658  -20.3901    0.0000 C   0  0  0  0  0  0  0  0  0  0  0  0
   26.8365  -19.2690    0.0000 C   0  0  0  0  0  0  0  0  0  0  0  0
   17.9377  -19.0588    0.0000 C   0  0  0  0  0  0  0  0  0  0  0  0
   19.2690  -18.4983    0.0000 N   0  0  0  0  0  0  0  0  0  0  0  0
   17.9377  -20.3901    0.0000 O   0  0  0  0  0  0  0  0  0  0  0  0
   22.2820  -20.8806    0.0000 C   0  0  0  0  0  0  0  0  0  0  0  0
   23.4732  -20.1799    0.0000 C   0  0  0  0  0  0  0  0  0  0  0  0
  1  2  1  0     0  0
  2  3  1  6     0  0
  4  5  1  0     0  0
  1  5  1  1     0  0
  6  7  1  0     0  0
  4  7  1  0     0  0
  8  9  1  0     0  0
  9 10  1  0     0  0
 10 11  1  0     0  0
  6 11  1  0     0  0
  9 12  2  0     0  0
 12 13  1  0     0  0
 13 14  2  0     0  0
 14 15  1  0     0  0
 10 15  2  0     0  0
 13 16  1  0     0  0
 16 17  2  0     0  0
 17 18  1  0     0  0
 18 19  2  0     0  0
 14 19  1  0     0  0
 20  2  1  0     0  0
  1 20  1  0     0  0
  3 21  1  0     0  0
 21 22  2  0     0  0
 24 23  1  6     0  0
 24 25  1  0     0  0
 21 25  1  0     0  0
 23 26  1  0     0  0
 23 27  1  0     0  0
 23 28  1  0     0  0
 24 29  1  0     0  0
 29 30  2  0     0  0
 31  8  1  6     0  0
 32 33  1  0     0  0
 33 34  1  0     0  0
 34 35  1  0     0  0
 35 31  1  0     0  0
 31 32  1  0     0  0
 29 33  1  0     0  0
 17 36  1  0     0  0
 36 37  1  0     0  0
 38 39  1  6     0  0
 39 40  1  0     0  0
 39 41  2  0     0  0
 38 42  1  0     0  0
 38 43  1  0     0  0
 42 43  1  0     0  0
 40 44  1  0     0  0
 44 45  1  0     0  0
 44 46  2  0     0  0
 44 47  2  0     0  0
 45 48  1  0     0  0
 45 49  1  0     0  0
 49 48  1  0     0  0
 50 51  1  0     0  0
 50 52  2  0     0  0
 38 51  1  1     0  0
 34 50  1  1     0  0
 43 53  1  6     0  0
 53 54  2  0     0  0
M  END
