 
 
 
 41 45  0  0  1  0  0  0  0  0999 V2000
   30.7150  -14.7577    0.0000 N   0  0  0  0  0  0  0  0  0  0  0  0
   30.7150  -16.1565    0.0000 C   0  0  0  0  0  0  0  0  0  0  0  0
   31.9040  -16.8559    0.0000 C   0  0  0  0  0  0  0  0  0  0  0  0
   33.1629  -16.1565    0.0000 C   0  0  0  0  0  0  0  0  0  0  0  0
   33.1629  -14.7577    0.0000 C   0  0  0  0  0  0  0  0  0  0  0  0
   31.9040  -14.0582    0.0000 C   0  0  0  0  0  0  0  0  0  0  0  0
   31.9040  -12.6594    0.0000 N   0  0  0  0  0  0  0  0  0  0  0  0
   33.0230  -11.8201    0.0000 C   0  0  0  0  0  0  0  0  0  0  0  0
   32.6034  -10.4912    0.0000 C   0  0  0  0  0  0  0  0  0  0  0  0
   31.2046  -10.4912    0.0000 C   0  0  0  0  0  0  0  0  0  0  0  0
   30.7849  -11.8201    0.0000 C   0  0  0  0  0  0  0  0  0  0  0  0
   29.5260  -16.8559    0.0000 N   0  0  0  0  0  0  0  0  0  0  0  0
   34.3519  -14.0582    0.0000 C   0  0  0  0  0  0  0  0  0  0  0  0
   35.6109  -14.7577    0.0000 N   0  0  0  0  0  0  0  0  0  0  0  0
   34.3519  -12.6594    0.0000 O   0  0  0  0  0  0  0  0  0  0  0  0
   36.7999  -14.0582    0.0000 S   0  0  0  0  0  0  0  0  0  0  0  0
   30.0855  -13.0791    0.0000 C   0  0  0  0  0  0  0  0  0  0  0  0
   29.5959  -11.1207    0.0000 C   0  0  0  0  0  0  0  0  0  0  0  0
   33.4427   -9.4421    0.0000 C   0  0  0  0  0  0  0  0  0  0  0  0
   28.1971  -16.5062    0.0000 C   0  0  0  0  0  0  0  0  0  0  0  0
   27.4277  -17.6253    0.0000 C   0  0  0  0  0  0  0  0  0  0  0  0
   28.3370  -18.7443    0.0000 C   0  0  0  0  0  0  0  0  0  0  0  0
   29.5959  -18.2547    0.0000 N   0  0  0  0  0  0  0  0  0  0  0  0
   27.9173  -20.0732    0.0000 O   0  0  0  0  0  0  0  0  0  0  0  0
   26.5185  -20.0732    0.0000 C   0  0  0  0  0  0  0  0  0  0  0  0
   25.8191  -21.2622    0.0000 C   0  0  0  0  0  0  0  0  0  0  0  0
   24.4202  -21.2622    0.0000 C   0  0  0  0  0  0  0  0  0  0  0  0
   23.7208  -20.0732    0.0000 C   0  0  0  0  0  0  0  0  0  0  0  0
   23.7208  -22.4512    0.0000 C   0  0  0  0  0  0  0  0  0  0  0  0
   23.0214  -21.2622    0.0000 C   0  0  0  0  0  0  0  0  0  0  0  0
   22.3220  -20.0732    0.0000 F   0  0  0  0  0  0  0  0  0  0  0  0
   24.4202  -18.8143    0.0000 F   0  0  0  0  0  0  0  0  0  0  0  0
   22.7416  -19.0940    0.0000 F   0  0  0  0  0  0  0  0  0  0  0  0
   36.7888  -12.6703    0.0000 C   0  0  0  0  0  0  0  0  0  0  0  0
   38.0187  -11.9467    0.0000 C   0  0  0  0  0  0  0  0  0  0  0  0
   38.0072  -10.5468    0.0000 C   0  0  0  0  0  0  0  0  0  0  0  0
   36.7890   -9.8567    0.0000 C   0  0  0  0  0  0  0  0  0  0  0  0
   35.5591  -10.5804    0.0000 C   0  0  0  0  0  0  0  0  0  0  0  0
   35.5706  -11.9803    0.0000 C   0  0  0  0  0  0  0  0  0  0  0  0
   38.0123  -13.3582    0.0000 O   0  0  0  0  0  0  0  0  0  0  0  0
   37.7898  -15.0482    0.0000 O   0  0  0  0  0  0  0  0  0  0  0  0
  1  2  2  0     0  0
  2  3  1  0     0  0
  3  4  2  0     0  0
  4  5  1  0     0  0
  5  6  2  0     0  0
  1  6  1  0     0  0
  6  7  1  0     0  0
  7  8  1  0     0  0
  8  9  1  0     0  0
  9 10  1  0     0  0
 10 11  1  0     0  0
  7 11  1  0     0  0
  2 12  1  0     0  0
  5 13  1  0     0  0
 13 14  1  0     0  0
 13 15  2  0     0  0
 14 16  1  0     0  0
 11 17  1  0     0  0
 11 18  1  0     0  0
  9 19  1  6     0  0
 12 20  1  0     0  0
 20 21  2  0     0  0
 21 22  1  0     0  0
 22 23  2  0     0  0
 12 23  1  0     0  0
 22 24  1  0     0  0
 24 25  1  0     0  0
 25 26  1  0     0  0
 26 27  1  0     0  0
 27 28  1  0     0  0
 27 29  1  0     0  0
 27 30  1  0     0  0
 29 30  1  0     0  0
 28 31  1  0     0  0
 28 32  1  0     0  0
 28 33  1  0     0  0
 16 34  1  0     0  0
 34 35  2  0     0  0
 35 36  1  0     0  0
 36 37  2  0     0  0
 37 38  1  0     0  0
 38 39  2  0     0  0
 34 39  1  0     0  0
 16 40  2  0     0  0
 16 41  2  0     0  0
M  END
