 
     RDKit          2D

 52 56  0  0  0  0  0  0  0  0999 V2000
   21.5369  -16.2638    0.0000 C   0  0  0  0  0  0  0  0  0  0  0  0
   22.7985  -16.9648    0.0000 N   0  0  0  0  0  0  0  0  0  0  0  0
   21.5369  -14.8622    0.0000 C   0  0  0  0  0  0  0  0  0  0  0  0
   20.3688  -16.9648    0.0000 C   0  0  0  0  0  0  0  0  0  0  0  0
   22.7984  -18.3665    0.0000 C   0  0  0  0  0  0  0  0  0  0  0  0
   23.9665  -16.2171    0.0000 C   0  0  0  0  0  0  0  0  0  0  0  0
   22.7518  -14.1613    0.0000 C   0  0  0  0  0  0  0  0  0  0  0  0
   20.3221  -14.1613    0.0000 C   0  0  0  0  0  0  0  0  0  0  0  0
   19.1539  -16.2638    0.0000 C   0  0  0  0  0  0  0  0  0  0  0  0
   23.4993  -19.5812    0.0000 C   0  0  0  0  0  0  0  0  0  0  0  0
   22.0975  -19.5812    0.0000 C   0  0  0  0  0  0  0  0  0  0  0  0
   23.9665  -14.8622    0.0000 C   0  0  0  0  0  0  0  0  0  0  0  0
   22.7518  -12.7596    0.0000 O   0  0  0  0  0  0  0  0  0  0  0  0
   19.1539  -14.8622    0.0000 C   0  0  0  0  0  0  0  0  0  0  0  0
   25.1813  -14.1613    0.0000 C   0  0  0  0  0  0  0  0  0  0  0  0
   17.8924  -14.1613    0.0000 F   0  0  0  0  0  0  0  0  0  0  0  0
   26.3962  -14.8622    0.0000 O   0  0  0  0  0  0  0  0  0  0  0  0
   25.1813  -12.7596    0.0000 O   0  0  0  0  0  0  0  0  0  0  0  0
   17.9391  -17.0115    0.0000 N   0  0  0  0  0  0  0  0  0  0  0  0
   16.7243  -16.3106    0.0000 C   0  0  0  0  0  0  0  0  0  0  0  0
   15.5094  -17.0115    0.0000 C   0  0  0  0  0  0  0  0  0  0  0  0
   15.5094  -18.4132    0.0000 N   0  0  0  0  0  0  0  0  0  0  0  0
   16.7243  -19.1140    0.0000 C   0  0  0  0  0  0  0  0  0  0  0  0
   17.9391  -18.3665    0.0000 C   0  0  0  0  0  0  0  0  0  0  0  0
   30.1710  -15.3771    0.0000 Cl  0  0  0  0  0  0  0  0  0  0  0  0
   33.2977  -15.4005    0.0000 O   0  0  0  0  0  0  0  0  0  0  0  0
   25.3915  -16.8055    0.0000 C   0  0  0  0  0  0  0  0  0  0  0  0
   24.2081  -17.4875    0.0000 C   0  0  0  0  0  0  0  0  0  0  0  0
   25.3915  -15.4414    0.0000 C   0  0  0  0  0  0  0  0  0  0  0  0
   27.7583  -16.8055    0.0000 C   0  0  0  0  0  0  0  0  0  0  0  0
   23.0247  -16.8055    0.0000 C   0  0  0  0  0  0  0  0  0  0  0  0
   24.1965  -18.8575    0.0000 C   0  0  0  0  0  0  0  0  0  0  0  0
   26.5809  -14.7535    0.0000 C   0  0  0  0  0  0  0  0  0  0  0  0
   24.2081  -14.7535    0.0000 C   0  0  0  0  0  0  0  0  0  0  0  0
   25.3858  -14.0713    0.0000 C   0  0  0  0  0  0  0  0  0  0  0  0
   27.7583  -15.4414    0.0000 C   0  0  0  0  0  0  0  0  0  0  0  0
   21.8356  -17.4875    0.0000 C   0  0  0  0  0  0  0  0  0  0  0  0
   23.0247  -15.4414    0.0000 C   0  0  0  0  0  0  0  0  0  0  0  0
   23.0247  -19.5395    0.0000 C   0  0  0  0  0  0  0  0  0  0  0  0
   26.5866  -13.3893    0.0000 C   0  0  0  0  0  0  0  0  0  0  0  0
   21.8356  -18.8575    0.0000 C   0  0  0  0  0  0  0  0  0  0  0  0
   20.6579  -16.8055    0.0000 C   0  0  0  0  0  0  0  0  0  0  0  0
   21.8239  -16.1233    0.0000 C   0  0  0  0  0  0  0  0  0  0  0  0
   21.8356  -14.7535    0.0000 O   0  0  0  0  0  0  0  0  0  0  0  0
   27.7643  -12.7072    0.0000 C   0  0  0  0  0  0  0  0  0  0  0  0
   25.3975  -12.7072    0.0000 O   0  0  0  0  0  0  0  0  0  0  0  0
   20.6579  -19.5395    0.0000 C   0  0  0  0  0  0  0  0  0  0  0  0
   19.4687  -17.4875    0.0000 C   0  0  0  0  0  0  0  0  0  0  0  0
   28.9534  -13.3951    0.0000 O   0  0  0  0  0  0  0  0  0  0  0  0
   19.4687  -18.8575    0.0000 C   0  0  0  0  0  0  0  0  0  0  0  0
   18.2853  -19.5395    0.0000 O   0  0  0  0  0  0  0  0  0  0  0  0
   27.9332  -14.3911    0.0000 O   0  0  0  0  0  0  0  0  0  0  0  0
  3  7  1  0
  3  8  1  0
  4  9  2  0
  5 10  1  0
  5 11  1  0
  6 12  2  0
  7 13  2  0
  8 14  2  0
 12 15  1  0
 14 16  1  0
 15 17  1  0
 15 18  2  0
  7 12  1  0
  9 14  1  0
 10 11  1  0
  9 19  1  0
  1  2  1  0
  1  3  2  0
  1  4  1  0
 19 20  1  0
 20 21  1  0
 21 22  1  0
 22 23  1  0
 23 24  1  0
 24 19  1  0
  2  5  1  0
  2  6  1  0
 27 28  1  0
 27 29  1  0
 27 30  1  1
 28 31  1  0
 28 32  1  6
 29 33  1  0
 29 34  1  0
 29 35  1  1
 30 36  1  0
 31 37  1  0
 31 38  1  1
 32 39  1  0
 33 40  1  0
 37 41  1  0
 37 42  1  0
 37 43  1  1
 38 44  1  1
 40 45  1  0
 40 46  2  0
 41 47  2  0
 42 48  1  0
 45 49  1  0
 47 50  1  0
 50 51  2  0
 33 36  1  0
 34 38  1  0
 39 41  1  0
 48 50  1  0
 33 52  1  6
M  END
