113836-69-4.mol
     RDKit          2D

427438  0  0  1  0  0  0  0  0999 V2000
   -0.9982   -0.1273    0.0000 S   0  0  0  0  0  0  0  0  0  0  0  0
   -1.5503   -0.7404    0.0000 S   0  0  0  0  0  0  0  0  0  0  0  0
   -4.0957  -20.6527    0.0000 S   0  0  0  0  0  0  0  0  0  0  0  0
   -3.2888  -20.8242    0.0000 S   0  0  0  0  0  0  0  0  0  0  0  0
   -1.2069  -24.9191    0.0000 S   0  0  0  0  0  0  0  0  0  0  0  0
   -0.3999  -25.0906    0.0000 S   0  0  0  0  0  0  0  0  0  0  0  0
   -7.9857   11.6754    0.0000 O   0  0  0  0  0  0  0  0  0  0  0  0
   -9.0123   11.2184    0.0000 O   0  0  0  0  0  0  0  0  0  0  0  0
   -5.1900   11.0812    0.0000 O   0  0  0  0  0  0  0  0  0  0  0  0
   -5.0185   11.8882    0.0000 O   0  0  0  0  0  0  0  0  0  0  0  0
  -11.8703   10.3933    0.0000 O   0  0  0  0  0  0  0  0  0  0  0  0
  -11.1559    9.1557    0.0000 O   0  0  0  0  0  0  0  0  0  0  0  0
   -4.2339   12.1431    0.0000 O   0  0  0  0  0  0  0  0  0  0  0  0
  -13.2993   13.6935    0.0000 O   0  0  0  0  0  0  0  0  0  0  0  0
   -5.3871   17.0274    0.0000 O   0  0  0  0  0  0  0  0  0  0  0  0
   -3.6207   11.5911    0.0000 O   0  0  0  0  0  0  0  0  0  0  0  0
  -12.5848   17.4062    0.0000 O   0  0  0  0  0  0  0  0  0  0  0  0
  -11.8703   16.1686    0.0000 O   0  0  0  0  0  0  0  0  0  0  0  0
   -3.7922   10.7841    0.0000 O   0  0  0  0  0  0  0  0  0  0  0  0
  -13.2993   17.8187    0.0000 O   0  0  0  0  0  0  0  0  0  0  0  0
   -3.6937    7.8110    0.0000 O   0  0  0  0  0  0  0  0  0  0  0  0
   -1.0696    6.4097    0.0000 O   0  0  0  0  0  0  0  0  0  0  0  0
   -2.3689    3.7337    0.0000 O   0  0  0  0  0  0  0  0  0  0  0  0
   -3.9383    3.2238    0.0000 O   0  0  0  0  0  0  0  0  0  0  0  0
   -4.3799    4.5829    0.0000 O   0  0  0  0  0  0  0  0  0  0  0  0
  -19.7300   27.3068    0.0000 O   0  0  0  0  0  0  0  0  0  0  0  0
  -20.4445   26.0692    0.0000 O   0  0  0  0  0  0  0  0  0  0  0  0
    0.2551    2.3325    0.0000 O   0  0  0  0  0  0  0  0  0  0  0  0
   -0.1911   -0.2988    0.0000 O   0  0  0  0  0  0  0  0  0  0  0  0
    2.7819   -0.2003    0.0000 O   0  0  0  0  0  0  0  0  0  0  0  0
    2.9947   -3.1674    0.0000 O   0  0  0  0  0  0  0  0  0  0  0  0
    3.2497   -3.9521    0.0000 O   0  0  0  0  0  0  0  0  0  0  0  0
    3.3802  -25.1637    0.0000 O   0  0  0  0  0  0  0  0  0  0  0  0
    1.4671  -12.3389    0.0000 O   0  0  0  0  0  0  0  0  0  0  0  0
    3.1674  -22.1965    0.0000 O   0  0  0  0  0  0  0  0  0  0  0  0
    3.9303  -10.6710    0.0000 O   0  0  0  0  0  0  0  0  0  0  0  0
    4.8215   -6.4776    0.0000 O   0  0  0  0  0  0  0  0  0  0  0  0
    2.3584   -8.1455    0.0000 O   0  0  0  0  0  0  0  0  0  0  0  0
    3.0389  -14.8644    0.0000 O   0  0  0  0  0  0  0  0  0  0  0  0
    0.1943  -22.2950    0.0000 O   0  0  0  0  0  0  0  0  0  0  0  0
   -3.2065   -2.5798    0.0000 O   0  0  0  0  0  0  0  0  0  0  0  0
    6.3533  -25.0651    0.0000 O   0  0  0  0  0  0  0  0  0  0  0  0
   -2.9516   -3.3645    0.0000 O   0  0  0  0  0  0  0  0  0  0  0  0
    8.1339   -2.7989    0.0000 O   0  0  0  0  0  0  0  0  0  0  0  0
   -6.7718  -19.3534    0.0000 O   0  0  0  0  0  0  0  0  0  0  0  0
   -3.3329   -9.1272    0.0000 O   0  0  0  0  0  0  0  0  0  0  0  0
   -3.9694  -14.1053    0.0000 O   0  0  0  0  0  0  0  0  0  0  0  0
   -5.7962  -10.7951    0.0000 O   0  0  0  0  0  0  0  0  0  0  0  0
   -0.6127  -22.1235    0.0000 O   0  0  0  0  0  0  0  0  0  0  0  0
   -4.2243  -13.3207    0.0000 O   0  0  0  0  0  0  0  0  0  0  0  0
    5.5444  -11.0141    0.0000 O   0  0  0  0  0  0  0  0  0  0  0  0
    4.2716  -20.9703    0.0000 O   0  0  0  0  0  0  0  0  0  0  0  0
   -5.2223  -21.4524    0.0000 O   0  0  0  0  0  0  0  0  0  0  0  0
    3.2939  -15.6491    0.0000 O   0  0  0  0  0  0  0  0  0  0  0  0
   -3.7565  -17.0724    0.0000 O   0  0  0  0  0  0  0  0  0  0  0  0
    5.8414   -9.6164    0.0000 O   0  0  0  0  0  0  0  0  0  0  0  0
   -6.2198  -18.7402    0.0000 O   0  0  0  0  0  0  0  0  0  0  0  0
   -4.9049   -6.6017    0.0000 O   0  0  0  0  0  0  0  0  0  0  0  0
    3.2096  -20.0140    0.0000 O   0  0  0  0  0  0  0  0  0  0  0  0
   -6.4747  -17.9556    0.0000 O   0  0  0  0  0  0  0  0  0  0  0  0
   -3.5036   -3.9776    0.0000 O   0  0  0  0  0  0  0  0  0  0  0  0
   -7.1111  -22.9336    0.0000 O   0  0  0  0  0  0  0  0  0  0  0  0
    2.6997  -18.4447    0.0000 O   0  0  0  0  0  0  0  0  0  0  0  0
   -1.1648  -22.7366    0.0000 O   0  0  0  0  0  0  0  0  0  0  0  0
   -3.5859  -22.2220    0.0000 O   0  0  0  0  0  0  0  0  0  0  0  0
   -5.2421  -24.0614    0.0000 O   0  0  0  0  0  0  0  0  0  0  0  0
   -4.7784   -0.0543    0.0000 O   0  0  0  0  0  0  0  0  0  0  0  0
   -1.0805  -18.3717    0.0000 O   0  0  0  0  0  0  0  0  0  0  0  0
   -3.4193    0.3873    0.0000 O   0  0  0  0  0  0  0  0  0  0  0  0
   -2.5660  -25.3607    0.0000 O   0  0  0  0  0  0  0  0  0  0  0  0
   -2.3131  -12.2659    0.0000 O   0  0  0  0  0  0  0  0  0  0  0  0
   -1.7189   -9.4703    0.0000 O   0  0  0  0  0  0  0  0  0  0  0  0
    3.5067  -18.6162    0.0000 O   0  0  0  0  0  0  0  0  0  0  0  0
   -5.3304   -0.6674    0.0000 O   0  0  0  0  0  0  0  0  0  0  0  0
   -1.4218   -8.0725    0.0000 O   0  0  0  0  0  0  0  0  0  0  0  0
   -4.3107   -3.8060    0.0000 O   0  0  0  0  0  0  0  0  0  0  0  0
    6.6926  -21.4848    0.0000 O   0  0  0  0  0  0  0  0  0  0  0  0
   -8.5987  -16.0432    0.0000 O   0  0  0  0  0  0  0  0  0  0  0  0
    9.6657  -21.3863    0.0000 O   0  0  0  0  0  0  0  0  0  0  0  0
   -0.0627   -7.6309    0.0000 O   0  0  0  0  0  0  0  0  0  0  0  0
    6.4798  -18.5177    0.0000 O   0  0  0  0  0  0  0  0  0  0  0  0
   10.4728  -21.5579    0.0000 O   0  0  0  0  0  0  0  0  0  0  0  0
   13.4459  -21.4594    0.0000 O   0  0  0  0  0  0  0  0  0  0  0  0
   14.2528  -21.6309    0.0000 O   0  0  0  0  0  0  0  0  0  0  0  0
   13.4880  -19.2769    0.0000 O   0  0  0  0  0  0  0  0  0  0  0  0
   16.9289  -22.9302    0.0000 O   0  0  0  0  0  0  0  0  0  0  0  0
   13.6587  -24.4265    0.0000 O   0  0  0  0  0  0  0  0  0  0  0  0
   -7.5440   10.3163    0.0000 N   0  0  0  0  0  0  0  0  0  0  0  0
   -9.7268    9.9808    0.0000 N   0  0  0  0  0  0  0  0  0  0  0  0
   -6.4163   12.1853    0.0000 N   0  0  0  0  0  0  0  0  0  0  0  0
   -4.6754   13.5023    0.0000 N   0  0  0  0  0  0  0  0  0  0  0  0
  -11.8703   13.6935    0.0000 N   0  0  0  0  0  0  0  0  0  0  0  0
   -2.6645   12.6531    0.0000 N   0  0  0  0  0  0  0  0  0  0  0  0
   -2.3944   10.4869    0.0000 N   0  0  0  0  0  0  0  0  0  0  0  0
  -14.0139   16.5812    0.0000 N   0  0  0  0  0  0  0  0  0  0  0  0
   -2.7376    8.8729    0.0000 N   0  0  0  0  0  0  0  0  0  0  0  0
   -2.4674    6.7068    0.0000 N   0  0  0  0  0  0  0  0  0  0  0  0
    0.4997    6.9196    0.0000 N   0  0  0  0  0  0  0  0  0  0  0  0
   -1.4128    4.7957    0.0000 N   0  0  0  0  0  0  0  0  0  0  0  0
    1.8975    6.6225    0.0000 N   0  0  0  0  0  0  0  0  0  0  0  0
    1.4558    7.9816    0.0000 N   0  0  0  0  0  0  0  0  0  0  0  0
   -1.1427    2.6296    0.0000 N   0  0  0  0  0  0  0  0  0  0  0  0
    0.1059    1.0990    0.0000 N   0  0  0  0  0  0  0  0  0  0  0  0
    1.4228   -0.6419    0.0000 N   0  0  0  0  0  0  0  0  0  0  0  0
    3.2918   -1.7696    0.0000 N   0  0  0  0  0  0  0  0  0  0  0  0
    4.6088   -3.5105    0.0000 N   0  0  0  0  0  0  0  0  0  0  0  0
    3.6774  -23.7659    0.0000 N   0  0  0  0  0  0  0  0  0  0  0  0
    3.7596   -5.5215    0.0000 N   0  0  0  0  0  0  0  0  0  0  0  0
    2.8262  -11.8973    0.0000 N   0  0  0  0  0  0  0  0  0  0  0  0
    4.9942  -25.5067    0.0000 N   0  0  0  0  0  0  0  0  0  0  0  0
    1.9769  -13.9083    0.0000 N   0  0  0  0  0  0  0  0  0  0  0  0
    2.8683   -9.7149    0.0000 N   0  0  0  0  0  0  0  0  0  0  0  0
    1.8083  -22.6381    0.0000 N   0  0  0  0  0  0  0  0  0  0  0  0
    3.7175   -7.7039    0.0000 N   0  0  0  0  0  0  0  0  0  0  0  0
   -1.5925   -2.9229    0.0000 N   0  0  0  0  0  0  0  0  0  0  0  0
    0.4914  -20.8972    0.0000 N   0  0  0  0  0  0  0  0  0  0  0  0
    1.9348  -16.0907    0.0000 N   0  0  0  0  0  0  0  0  0  0  0  0
   -4.4371  -10.3535    0.0000 N   0  0  0  0  0  0  0  0  0  0  0  0
   -6.8140  -21.5358    0.0000 N   0  0  0  0  0  0  0  0  0  0  0  0
   -2.9094   -1.1820    0.0000 N   0  0  0  0  0  0  0  0  0  0  0  0
   -4.8185  -16.1163    0.0000 N   0  0  0  0  0  0  0  0  0  0  0  0
   -5.3284  -14.5468    0.0000 N   0  0  0  0  0  0  0  0  0  0  0  0
   -5.2863  -12.3644    0.0000 N   0  0  0  0  0  0  0  0  0  0  0  0
   -5.7098  -20.3096    0.0000 N   0  0  0  0  0  0  0  0  0  0  0  0
   -4.3949   -8.1710    0.0000 N   0  0  0  0  0  0  0  0  0  0  0  0
   -2.4416   -4.9338    0.0000 N   0  0  0  0  0  0  0  0  0  0  0  0
   -1.6747  -21.1673    0.0000 N   0  0  0  0  0  0  0  0  0  0  0  0
   -4.8607  -18.2987    0.0000 N   0  0  0  0  0  0  0  0  0  0  0  0
   -3.5458   -6.1601    0.0000 N   0  0  0  0  0  0  0  0  0  0  0  0
   -4.9450  -22.6636    0.0000 N   0  0  0  0  0  0  0  0  0  0  0  0
    5.5042  -27.0760    0.0000 N   0  0  0  0  0  0  0  0  0  0  0  0
   -2.5239  -23.1783    0.0000 N   0  0  0  0  0  0  0  0  0  0  0  0
   -0.4998  -15.6614    0.0000 N   0  0  0  0  0  0  0  0  0  0  0  0
    3.8038  -17.2184    0.0000 N   0  0  0  0  0  0  0  0  0  0  0  0
   -3.6280  -24.4045    0.0000 N   0  0  0  0  0  0  0  0  0  0  0  0
   -0.2222  -16.9672    0.0000 N   0  0  0  0  0  0  0  0  0  0  0  0
    8.6038  -20.4301    0.0000 N   0  0  0  0  0  0  0  0  0  0  0  0
    6.9898  -20.0870    0.0000 N   0  0  0  0  0  0  0  0  0  0  0  0
   -2.4395  -18.8133    0.0000 N   0  0  0  0  0  0  0  0  0  0  0  0
   -2.0160  -10.8681    0.0000 N   0  0  0  0  0  0  0  0  0  0  0  0
    5.1207  -18.9593    0.0000 N   0  0  0  0  0  0  0  0  0  0  0  0
   10.7699  -20.1601    0.0000 N   0  0  0  0  0  0  0  0  0  0  0  0
   -5.6275   -2.0652    0.0000 N   0  0  0  0  0  0  0  0  0  0  0  0
   -5.6697   -4.2477    0.0000 N   0  0  0  0  0  0  0  0  0  0  0  0
   12.0868  -21.9009    0.0000 N   0  0  0  0  0  0  0  0  0  0  0  0
   13.9557  -23.0287    0.0000 N   0  0  0  0  0  0  0  0  0  0  0  0
   15.8669  -21.9740    0.0000 N   0  0  0  0  0  0  0  0  0  0  0  0
   11.0804  -18.6770    0.0000 N   0  0  0  0  0  0  0  0  0  0  0  0
   10.8029  -17.3712    0.0000 N   0  0  0  0  0  0  0  0  0  0  0  0
   14.5499  -20.2331    0.0000 N   0  0  0  0  0  0  0  0  0  0  0  0
   16.9710  -20.7477    0.0000 N   0  0  0  0  0  0  0  0  0  0  0  0
   12.2996  -24.8680    0.0000 N   0  0  0  0  0  0  0  0  0  0  0  0
   -8.2978    9.9808    0.0000 C   0  0  0  0  0  0  0  0  0  0  0  0
   -8.2115    9.1603    0.0000 C   0  0  0  0  0  0  0  0  0  0  0  0
   -7.4045    8.9887    0.0000 C   0  0  0  0  0  0  0  0  0  0  0  0
   -6.9920    9.7032    0.0000 C   0  0  0  0  0  0  0  0  0  0  0  0
   -7.3725   11.1234    0.0000 C   0  0  0  0  0  0  0  0  0  0  0  0
   -9.0123   10.3933    0.0000 C   0  0  0  0  0  0  0  0  0  0  0  0
   -6.5878   11.3783    0.0000 C   0  0  0  0  0  0  0  0  0  0  0  0
   -5.9747   10.8263    0.0000 C   0  0  0  0  0  0  0  0  0  0  0  0
  -10.4413   10.3933    0.0000 C   0  0  0  0  0  0  0  0  0  0  0  0
  -10.4413   11.2184    0.0000 C   0  0  0  0  0  0  0  0  0  0  0  0
   -6.1462   10.0192    0.0000 C   0  0  0  0  0  0  0  0  0  0  0  0
  -11.1559   11.6309    0.0000 C   0  0  0  0  0  0  0  0  0  0  0  0
   -5.6317   12.4402    0.0000 C   0  0  0  0  0  0  0  0  0  0  0  0
   -5.4601   13.2473    0.0000 C   0  0  0  0  0  0  0  0  0  0  0  0
  -11.1559    9.9808    0.0000 C   0  0  0  0  0  0  0  0  0  0  0  0
  -11.1559   12.4559    0.0000 C   0  0  0  0  0  0  0  0  0  0  0  0
   -6.0732   13.7994    0.0000 C   0  0  0  0  0  0  0  0  0  0  0  0
  -11.8703   12.8684    0.0000 C   0  0  0  0  0  0  0  0  0  0  0  0
   -5.9017   14.6064    0.0000 C   0  0  0  0  0  0  0  0  0  0  0  0
   -4.0623   12.9502    0.0000 C   0  0  0  0  0  0  0  0  0  0  0  0
   -3.2776   13.2051    0.0000 C   0  0  0  0  0  0  0  0  0  0  0  0
   -5.1170   14.8613    0.0000 C   0  0  0  0  0  0  0  0  0  0  0  0
   -6.5148   15.1585    0.0000 C   0  0  0  0  0  0  0  0  0  0  0  0
   -3.1061   14.0121    0.0000 C   0  0  0  0  0  0  0  0  0  0  0  0
  -12.5848   14.1060    0.0000 C   0  0  0  0  0  0  0  0  0  0  0  0
   -4.9455   15.6683    0.0000 C   0  0  0  0  0  0  0  0  0  0  0  0
   -6.3433   15.9655    0.0000 C   0  0  0  0  0  0  0  0  0  0  0  0
  -12.5848   14.9311    0.0000 C   0  0  0  0  0  0  0  0  0  0  0  0
   -2.3214   14.2672    0.0000 C   0  0  0  0  0  0  0  0  0  0  0  0
   -5.5586   16.2205    0.0000 C   0  0  0  0  0  0  0  0  0  0  0  0
   -2.8361   11.8460    0.0000 C   0  0  0  0  0  0  0  0  0  0  0  0
  -13.2993   15.3436    0.0000 C   0  0  0  0  0  0  0  0  0  0  0  0
   -2.2229   11.2940    0.0000 C   0  0  0  0  0  0  0  0  0  0  0  0
  -13.2993   16.1686    0.0000 C   0  0  0  0  0  0  0  0  0  0  0  0
   -1.7083   13.7150    0.0000 C   0  0  0  0  0  0  0  0  0  0  0  0
   -2.1499   15.0741    0.0000 C   0  0  0  0  0  0  0  0  0  0  0  0
   -1.4383   11.5489    0.0000 C   0  0  0  0  0  0  0  0  0  0  0  0
   -0.9236   13.9700    0.0000 C   0  0  0  0  0  0  0  0  0  0  0  0
   -1.3652   15.3291    0.0000 C   0  0  0  0  0  0  0  0  0  0  0  0
   -0.8251   10.9969    0.0000 C   0  0  0  0  0  0  0  0  0  0  0  0
  -12.5848   16.5812    0.0000 C   0  0  0  0  0  0  0  0  0  0  0  0
   -0.7521   14.7770    0.0000 C   0  0  0  0  0  0  0  0  0  0  0  0
   -3.1791   10.2320    0.0000 C   0  0  0  0  0  0  0  0  0  0  0  0
  -14.0139   17.4062    0.0000 C   0  0  0  0  0  0  0  0  0  0  0  0
  -14.7284   17.8187    0.0000 C   0  0  0  0  0  0  0  0  0  0  0  0
   -0.9966   10.1898    0.0000 C   0  0  0  0  0  0  0  0  0  0  0  0
   -0.0405   11.2518    0.0000 C   0  0  0  0  0  0  0  0  0  0  0  0
   -3.3506    9.4250    0.0000 C   0  0  0  0  0  0  0  0  0  0  0  0
  -14.7284   18.6438    0.0000 C   0  0  0  0  0  0  0  0  0  0  0  0
  -15.4429   19.0563    0.0000 C   0  0  0  0  0  0  0  0  0  0  0  0
   -0.3835    9.6378    0.0000 C   0  0  0  0  0  0  0  0  0  0  0  0
    0.5727   10.6998    0.0000 C   0  0  0  0  0  0  0  0  0  0  0  0
  -15.4429   19.8814    0.0000 C   0  0  0  0  0  0  0  0  0  0  0  0
    0.4012    9.8927    0.0000 C   0  0  0  0  0  0  0  0  0  0  0  0
  -16.1574   20.2939    0.0000 C   0  0  0  0  0  0  0  0  0  0  0  0
  -16.1574   21.1189    0.0000 C   0  0  0  0  0  0  0  0  0  0  0  0
   -2.9091    8.0659    0.0000 C   0  0  0  0  0  0  0  0  0  0  0  0
   -2.2959    7.5139    0.0000 C   0  0  0  0  0  0  0  0  0  0  0  0
  -16.8720   21.5315    0.0000 C   0  0  0  0  0  0  0  0  0  0  0  0
   -1.5113    7.7688    0.0000 C   0  0  0  0  0  0  0  0  0  0  0  0
  -16.8720   22.3565    0.0000 C   0  0  0  0  0  0  0  0  0  0  0  0
  -17.5864   22.7690    0.0000 C   0  0  0  0  0  0  0  0  0  0  0  0
   -0.8981    7.2167    0.0000 C   0  0  0  0  0  0  0  0  0  0  0  0
  -17.5864   23.5941    0.0000 C   0  0  0  0  0  0  0  0  0  0  0  0
   -1.8543    6.1548    0.0000 C   0  0  0  0  0  0  0  0  0  0  0  0
   -0.1135    7.4717    0.0000 C   0  0  0  0  0  0  0  0  0  0  0  0
  -18.3009   24.0066    0.0000 C   0  0  0  0  0  0  0  0  0  0  0  0
   -2.0259    5.3477    0.0000 C   0  0  0  0  0  0  0  0  0  0  0  0
  -18.3009   24.8317    0.0000 C   0  0  0  0  0  0  0  0  0  0  0  0
   -2.8106    5.0928    0.0000 C   0  0  0  0  0  0  0  0  0  0  0  0
  -19.0155   25.2442    0.0000 C   0  0  0  0  0  0  0  0  0  0  0  0
   -2.9821    4.2858    0.0000 C   0  0  0  0  0  0  0  0  0  0  0  0
  -19.0155   26.0692    0.0000 C   0  0  0  0  0  0  0  0  0  0  0  0
   -1.5843    3.9887    0.0000 C   0  0  0  0  0  0  0  0  0  0  0  0
    1.2843    7.1746    0.0000 C   0  0  0  0  0  0  0  0  0  0  0  0
   -3.7667    4.0309    0.0000 C   0  0  0  0  0  0  0  0  0  0  0  0
   -0.9711    3.4366    0.0000 C   0  0  0  0  0  0  0  0  0  0  0  0
  -19.7300   26.4818    0.0000 C   0  0  0  0  0  0  0  0  0  0  0  0
   -0.5296    2.0775    0.0000 C   0  0  0  0  0  0  0  0  0  0  0  0
   -0.7011    1.2705    0.0000 C   0  0  0  0  0  0  0  0  0  0  0  0
   -1.2532    0.6574    0.0000 C   0  0  0  0  0  0  0  0  0  0  0  0
    1.1679    0.1427    0.0000 C   0  0  0  0  0  0  0  0  0  0  0  0
    0.3608    0.3143    0.0000 C   0  0  0  0  0  0  0  0  0  0  0  0
    1.7199    0.7559    0.0000 C   0  0  0  0  0  0  0  0  0  0  0  0
    2.4848   -1.5981    0.0000 C   0  0  0  0  0  0  0  0  0  0  0  0
    1.9327   -2.2112    0.0000 C   0  0  0  0  0  0  0  0  0  0  0  0
    2.2299   -0.8134    0.0000 C   0  0  0  0  0  0  0  0  0  0  0  0
    2.5270    0.5844    0.0000 C   0  0  0  0  0  0  0  0  0  0  0  0
    1.4650    1.5405    0.0000 C   0  0  0  0  0  0  0  0  0  0  0  0
    1.1258   -2.0397    0.0000 C   0  0  0  0  0  0  0  0  0  0  0  0
    4.3538   -2.7259    0.0000 C   0  0  0  0  0  0  0  0  0  0  0  0
    3.5468   -2.5544    0.0000 C   0  0  0  0  0  0  0  0  0  0  0  0
    0.5737   -2.6529    0.0000 C   0  0  0  0  0  0  0  0  0  0  0  0
    0.8708   -1.2551    0.0000 C   0  0  0  0  0  0  0  0  0  0  0  0
    4.3117   -4.9083    0.0000 C   0  0  0  0  0  0  0  0  0  0  0  0
    5.2914  -24.1089    0.0000 C   0  0  0  0  0  0  0  0  0  0  0  0
    4.7393  -24.7221    0.0000 C   0  0  0  0  0  0  0  0  0  0  0  0
    4.9248   -5.4604    0.0000 C   0  0  0  0  0  0  0  0  0  0  0  0
    4.9059   -2.1127    0.0000 C   0  0  0  0  0  0  0  0  0  0  0  0
    2.8703  -23.5943    0.0000 C   0  0  0  0  0  0  0  0  0  0  0  0
    5.7095   -5.2054    0.0000 C   0  0  0  0  0  0  0  0  0  0  0  0
    2.5712  -11.1127    0.0000 C   0  0  0  0  0  0  0  0  0  0  0  0
    2.3183  -24.2074    0.0000 C   0  0  0  0  0  0  0  0  0  0  0  0
    2.5291  -13.2951    0.0000 C   0  0  0  0  0  0  0  0  0  0  0  0
    4.0567   -4.1237    0.0000 C   0  0  0  0  0  0  0  0  0  0  0  0
    3.3360  -13.4666    0.0000 C   0  0  0  0  0  0  0  0  0  0  0  0
    1.7642  -10.9411    0.0000 C   0  0  0  0  0  0  0  0  0  0  0  0
    6.0984  -24.2804    0.0000 C   0  0  0  0  0  0  0  0  0  0  0  0
   -1.2953   -1.5251    0.0000 C   0  0  0  0  0  0  0  0  0  0  0  0
    4.1207  -13.2117    0.0000 C   0  0  0  0  0  0  0  0  0  0  0  0
    3.9323  -24.5505    0.0000 C   0  0  0  0  0  0  0  0  0  0  0  0
    5.0364  -23.3243    0.0000 C   0  0  0  0  0  0  0  0  0  0  0  0
    2.2741  -12.5105    0.0000 C   0  0  0  0  0  0  0  0  0  0  0  0
   -1.8474   -2.1382    0.0000 C   0  0  0  0  0  0  0  0  0  0  0  0
    5.7129   -2.2842    0.0000 C   0  0  0  0  0  0  0  0  0  0  0  0
    3.4204   -9.1017    0.0000 C   0  0  0  0  0  0  0  0  0  0  0  0
    2.6154  -22.8096    0.0000 C   0  0  0  0  0  0  0  0  0  0  0  0
    3.1233  -10.4995    0.0000 C   0  0  0  0  0  0  0  0  0  0  0  0
    6.3226   -5.7575    0.0000 C   0  0  0  0  0  0  0  0  0  0  0  0
    5.8810   -4.3984    0.0000 C   0  0  0  0  0  0  0  0  0  0  0  0
    1.5534  -21.8535    0.0000 C   0  0  0  0  0  0  0  0  0  0  0  0
    3.4625   -6.9192    0.0000 C   0  0  0  0  0  0  0  0  0  0  0  0
    2.5732  -24.9921    0.0000 C   0  0  0  0  0  0  0  0  0  0  0  0
    1.5112  -24.0359    0.0000 C   0  0  0  0  0  0  0  0  0  0  0  0
    4.0146   -6.3061    0.0000 C   0  0  0  0  0  0  0  0  0  0  0  0
    1.2121  -11.5542    0.0000 C   0  0  0  0  0  0  0  0  0  0  0  0
    1.5092  -10.1564    0.0000 C   0  0  0  0  0  0  0  0  0  0  0  0
    4.2274   -9.2732    0.0000 C   0  0  0  0  0  0  0  0  0  0  0  0
    6.6505  -23.6673    0.0000 C   0  0  0  0  0  0  0  0  0  0  0  0
    4.7338  -13.7637    0.0000 C   0  0  0  0  0  0  0  0  0  0  0  0
    4.2923  -12.4047    0.0000 C   0  0  0  0  0  0  0  0  0  0  0  0
    3.1654   -8.3171    0.0000 C   0  0  0  0  0  0  0  0  0  0  0  0
    2.1055  -21.2403    0.0000 C   0  0  0  0  0  0  0  0  0  0  0  0
    1.6798  -15.3061    0.0000 C   0  0  0  0  0  0  0  0  0  0  0  0
    2.2320  -14.6929    0.0000 C   0  0  0  0  0  0  0  0  0  0  0  0
   -7.8760  -20.5797    0.0000 C   0  0  0  0  0  0  0  0  0  0  0  0
   -7.0689  -20.7512    0.0000 C   0  0  0  0  0  0  0  0  0  0  0  0
    5.9679   -3.0689    0.0000 C   0  0  0  0  0  0  0  0  0  0  0  0
    6.2650   -1.6711    0.0000 C   0  0  0  0  0  0  0  0  0  0  0  0
    0.7464  -21.6819    0.0000 C   0  0  0  0  0  0  0  0  0  0  0  0
   -2.6545   -1.9667    0.0000 C   0  0  0  0  0  0  0  0  0  0  0  0
   -5.0502   -9.8014    0.0000 C   0  0  0  0  0  0  0  0  0  0  0  0
    5.8013  -25.6782    0.0000 C   0  0  0  0  0  0  0  0  0  0  0  0
    2.6555   -6.7477    0.0000 C   0  0  0  0  0  0  0  0  0  0  0  0
   -5.8349  -10.0564    0.0000 C   0  0  0  0  0  0  0  0  0  0  0  0
    4.4824  -10.0579    0.0000 C   0  0  0  0  0  0  0  0  0  0  0  0
   -0.3156  -20.7257    0.0000 C   0  0  0  0  0  0  0  0  0  0  0  0
   -4.2665  -15.5031    0.0000 C   0  0  0  0  0  0  0  0  0  0  0  0
   -3.4594  -15.6746    0.0000 C   0  0  0  0  0  0  0  0  0  0  0  0
   -6.4480   -9.5043    0.0000 C   0  0  0  0  0  0  0  0  0  0  0  0
    0.8729  -15.1345    0.0000 C   0  0  0  0  0  0  0  0  0  0  0  0
    2.9125  -21.4118    0.0000 C   0  0  0  0  0  0  0  0  0  0  0  0
   -8.4280  -21.1928    0.0000 C   0  0  0  0  0  0  0  0  0  0  0  0
   -2.9073  -15.0615    0.0000 C   0  0  0  0  0  0  0  0  0  0  0  0
   -4.7342  -11.7513    0.0000 C   0  0  0  0  0  0  0  0  0  0  0  0
   -2.1445   -3.5360    0.0000 C   0  0  0  0  0  0  0  0  0  0  0  0
   -1.8896   -4.3207    0.0000 C   0  0  0  0  0  0  0  0  0  0  0  0
   -5.5834  -13.7622    0.0000 C   0  0  0  0  0  0  0  0  0  0  0  0
   -0.5706  -19.9410    0.0000 C   0  0  0  0  0  0  0  0  0  0  0  0
    6.7748   -3.2405    0.0000 C   0  0  0  0  0  0  0  0  0  0  0  0
    7.0719   -1.8427    0.0000 C   0  0  0  0  0  0  0  0  0  0  0  0
   -6.5169  -20.1380    0.0000 C   0  0  0  0  0  0  0  0  0  0  0  0
   -8.1309  -19.7950    0.0000 C   0  0  0  0  0  0  0  0  0  0  0  0
    6.0562  -26.4629    0.0000 C   0  0  0  0  0  0  0  0  0  0  0  0
   -4.1400   -8.9557    0.0000 C   0  0  0  0  0  0  0  0  0  0  0  0
   -4.5214  -14.7185    0.0000 C   0  0  0  0  0  0  0  0  0  0  0  0
   -3.8429   -7.5579    0.0000 C   0  0  0  0  0  0  0  0  0  0  0  0
   -4.9891  -10.9666    0.0000 C   0  0  0  0  0  0  0  0  0  0  0  0
   -3.9272  -11.9228    0.0000 C   0  0  0  0  0  0  0  0  0  0  0  0
   -5.1578  -19.6965    0.0000 C   0  0  0  0  0  0  0  0  0  0  0  0
    7.3270   -2.6274    0.0000 C   0  0  0  0  0  0  0  0  0  0  0  0
   -0.8677  -21.3388    0.0000 C   0  0  0  0  0  0  0  0  0  0  0  0
   -6.3904  -13.5907    0.0000 C   0  0  0  0  0  0  0  0  0  0  0  0
   -5.0313  -13.1490    0.0000 C   0  0  0  0  0  0  0  0  0  0  0  0
    0.3207  -15.7476    0.0000 C   0  0  0  0  0  0  0  0  0  0  0  0
   -7.2327   -9.7593    0.0000 C   0  0  0  0  0  0  0  0  0  0  0  0
   -6.2765   -8.6973    0.0000 C   0  0  0  0  0  0  0  0  0  0  0  0
   -5.1156  -17.5141    0.0000 C   0  0  0  0  0  0  0  0  0  0  0  0
   -1.0825   -4.4922    0.0000 C   0  0  0  0  0  0  0  0  0  0  0  0
   -3.7164   -1.0104    0.0000 C   0  0  0  0  0  0  0  0  0  0  0  0
   -9.2351  -21.0212    0.0000 C   0  0  0  0  0  0  0  0  0  0  0  0
   -2.1003  -15.2330    0.0000 C   0  0  0  0  0  0  0  0  0  0  0  0
   -3.1623  -14.2768    0.0000 C   0  0  0  0  0  0  0  0  0  0  0  0
   -2.2268  -21.7805    0.0000 C   0  0  0  0  0  0  0  0  0  0  0  0
   -1.3776  -19.7695    0.0000 C   0  0  0  0  0  0  0  0  0  0  0  0
   -5.7520  -22.4921    0.0000 C   0  0  0  0  0  0  0  0  0  0  0  0
   -6.0070  -21.7074    0.0000 C   0  0  0  0  0  0  0  0  0  0  0  0
   -3.0358   -7.7294    0.0000 C   0  0  0  0  0  0  0  0  0  0  0  0
    2.7418  -16.2622    0.0000 C   0  0  0  0  0  0  0  0  0  0  0  0
   -4.5636  -16.9009    0.0000 C   0  0  0  0  0  0  0  0  0  0  0  0
   -3.8007   -5.3754    0.0000 C   0  0  0  0  0  0  0  0  0  0  0  0
    5.2894  -10.2294    0.0000 C   0  0  0  0  0  0  0  0  0  0  0  0
    2.9968  -17.0469    0.0000 C   0  0  0  0  0  0  0  0  0  0  0  0
   -5.4127  -18.9118    0.0000 C   0  0  0  0  0  0  0  0  0  0  0  0
   -4.3508  -19.8680    0.0000 C   0  0  0  0  0  0  0  0  0  0  0  0
   -3.3751  -11.3097    0.0000 C   0  0  0  0  0  0  0  0  0  0  0  0
   -4.0978   -6.7732    0.0000 C   0  0  0  0  0  0  0  0  0  0  0  0
    3.4645  -20.7987    0.0000 C   0  0  0  0  0  0  0  0  0  0  0  0
   -3.2487   -4.7623    0.0000 C   0  0  0  0  0  0  0  0  0  0  0  0
   -6.9425  -14.2038    0.0000 C   0  0  0  0  0  0  0  0  0  0  0  0
   -3.0338  -21.6089    0.0000 C   0  0  0  0  0  0  0  0  0  0  0  0
   -3.8830  -23.6198    0.0000 C   0  0  0  0  0  0  0  0  0  0  0  0
   -5.9227  -17.3424    0.0000 C   0  0  0  0  0  0  0  0  0  0  0  0
   -4.2685   -1.6235    0.0000 C   0  0  0  0  0  0  0  0  0  0  0  0
   -0.8276   -5.2769    0.0000 C   0  0  0  0  0  0  0  0  0  0  0  0
   -2.7809   -8.5141    0.0000 C   0  0  0  0  0  0  0  0  0  0  0  0
   -1.9718  -22.5651    0.0000 C   0  0  0  0  0  0  0  0  0  0  0  0
    0.4923  -16.5547    0.0000 C   0  0  0  0  0  0  0  0  0  0  0  0
   -2.2689  -23.9629    0.0000 C   0  0  0  0  0  0  0  0  0  0  0  0
   -4.6078   -5.2038    0.0000 C   0  0  0  0  0  0  0  0  0  0  0  0
   -6.3041  -23.1052    0.0000 C   0  0  0  0  0  0  0  0  0  0  0  0
   -4.6900  -23.4483    0.0000 C   0  0  0  0  0  0  0  0  0  0  0  0
    2.4447  -17.6601    0.0000 C   0  0  0  0  0  0  0  0  0  0  0  0
   -3.3309  -23.0067    0.0000 C   0  0  0  0  0  0  0  0  0  0  0  0
   -1.6326  -18.9849    0.0000 C   0  0  0  0  0  0  0  0  0  0  0  0
   -3.9713   -0.2258    0.0000 C   0  0  0  0  0  0  0  0  0  0  0  0
   -2.8210  -24.5761    0.0000 C   0  0  0  0  0  0  0  0  0  0  0  0
    8.0517  -21.0433    0.0000 C   0  0  0  0  0  0  0  0  0  0  0  0
   -2.5681  -11.4812    0.0000 C   0  0  0  0  0  0  0  0  0  0  0  0
    8.3067  -21.8279    0.0000 C   0  0  0  0  0  0  0  0  0  0  0  0
   -7.7495  -14.0323    0.0000 C   0  0  0  0  0  0  0  0  0  0  0  0
   -6.6875  -14.9885    0.0000 C   0  0  0  0  0  0  0  0  0  0  0  0
   -1.4619  -24.1344    0.0000 C   0  0  0  0  0  0  0  0  0  0  0  0
   -0.8353  -16.4151    0.0000 C   0  0  0  0  0  0  0  0  0  0  0  0
    7.7546  -22.4411    0.0000 C   0  0  0  0  0  0  0  0  0  0  0  0
   -1.3796   -5.8900    0.0000 C   0  0  0  0  0  0  0  0  0  0  0  0
   -0.0205   -5.4485    0.0000 C   0  0  0  0  0  0  0  0  0  0  0  0
   -5.0755   -1.4520    0.0000 C   0  0  0  0  0  0  0  0  0  0  0  0
    4.0588  -18.0031    0.0000 C   0  0  0  0  0  0  0  0  0  0  0  0
   -3.0760  -23.7914    0.0000 C   0  0  0  0  0  0  0  0  0  0  0  0
    6.1827  -19.9155    0.0000 C   0  0  0  0  0  0  0  0  0  0  0  0
   -1.9738   -8.6856    0.0000 C   0  0  0  0  0  0  0  0  0  0  0  0
   -4.8627   -4.4192    0.0000 C   0  0  0  0  0  0  0  0  0  0  0  0
    7.2447  -20.8718    0.0000 C   0  0  0  0  0  0  0  0  0  0  0  0
   -8.3015  -14.6454    0.0000 C   0  0  0  0  0  0  0  0  0  0  0  0
   -7.2396  -15.6016    0.0000 C   0  0  0  0  0  0  0  0  0  0  0  0
    4.8658  -18.1747    0.0000 C   0  0  0  0  0  0  0  0  0  0  0  0
    9.9628  -19.9885    0.0000 C   0  0  0  0  0  0  0  0  0  0  0  0
   -8.0466  -15.4301    0.0000 C   0  0  0  0  0  0  0  0  0  0  0  0
   -0.1450  -25.8753    0.0000 C   0  0  0  0  0  0  0  0  0  0  0  0
    8.0095  -23.2257    0.0000 C   0  0  0  0  0  0  0  0  0  0  0  0
    6.9476  -22.2695    0.0000 C   0  0  0  0  0  0  0  0  0  0  0  0
    9.4108  -20.6016    0.0000 C   0  0  0  0  0  0  0  0  0  0  0  0
   -1.1247   -6.6747    0.0000 C   0  0  0  0  0  0  0  0  0  0  0  0
    0.2344   -6.2331    0.0000 C   0  0  0  0  0  0  0  0  0  0  0  0
    5.9278  -19.1308    0.0000 C   0  0  0  0  0  0  0  0  0  0  0  0
    9.7079  -19.2038    0.0000 C   0  0  0  0  0  0  0  0  0  0  0  0
   -0.3176   -6.8463    0.0000 C   0  0  0  0  0  0  0  0  0  0  0  0
   11.8319  -21.1163    0.0000 C   0  0  0  0  0  0  0  0  0  0  0  0
   11.0248  -20.9447    0.0000 C   0  0  0  0  0  0  0  0  0  0  0  0
   12.3839  -20.5032    0.0000 C   0  0  0  0  0  0  0  0  0  0  0  0
   10.2600  -18.5907    0.0000 C   0  0  0  0  0  0  0  0  0  0  0  0
   13.1488  -22.8571    0.0000 C   0  0  0  0  0  0  0  0  0  0  0  0
   15.3148  -22.5871    0.0000 C   0  0  0  0  0  0  0  0  0  0  0  0
   15.5698  -23.3718    0.0000 C   0  0  0  0  0  0  0  0  0  0  0  0
   12.8937  -22.0725    0.0000 C   0  0  0  0  0  0  0  0  0  0  0  0
   13.1909  -20.6747    0.0000 C   0  0  0  0  0  0  0  0  0  0  0  0
   14.5078  -22.4156    0.0000 C   0  0  0  0  0  0  0  0  0  0  0  0
   12.5967  -23.4702    0.0000 C   0  0  0  0  0  0  0  0  0  0  0  0
   10.0885  -17.7837    0.0000 C   0  0  0  0  0  0  0  0  0  0  0  0
   16.3768  -23.5433    0.0000 C   0  0  0  0  0  0  0  0  0  0  0  0
   15.0177  -23.9849    0.0000 C   0  0  0  0  0  0  0  0  0  0  0  0
   13.7430  -20.0616    0.0000 C   0  0  0  0  0  0  0  0  0  0  0  0
   16.6739  -22.1455    0.0000 C   0  0  0  0  0  0  0  0  0  0  0  0
   17.2260  -21.5324    0.0000 C   0  0  0  0  0  0  0  0  0  0  0  0
   11.4160  -17.9233    0.0000 C   0  0  0  0  0  0  0  0  0  0  0  0
   12.8517  -24.2549    0.0000 C   0  0  0  0  0  0  0  0  0  0  0  0
   18.0330  -21.7039    0.0000 C   0  0  0  0  0  0  0  0  0  0  0  0
   18.5851  -21.0908    0.0000 C   0  0  0  0  0  0  0  0  0  0  0  0
   19.3921  -21.2623    0.0000 C   0  0  0  0  0  0  0  0  0  0  0  0
   18.3301  -20.3061    0.0000 C   0  0  0  0  0  0  0  0  0  0  0  0
   19.9441  -20.6492    0.0000 C   0  0  0  0  0  0  0  0  0  0  0  0
   18.8822  -19.6930    0.0000 C   0  0  0  0  0  0  0  0  0  0  0  0
   19.6892  -19.8645    0.0000 C   0  0  0  0  0  0  0  0  0  0  0  0
    1.9424    8.1397    0.0000 H   0  0  0  0  0  0  0  0  0  0  0  0
  1  2  1  0
  1233  1  0
  2261  1  0
  3  4  1  0
  3347  1  0
  4353  1  0
  5  6  1  0
  5375  1  0
  6392  1  0
  7157  2  0
  8158  2  0
160  9  1  0
 10165  2  0
 11167  1  0
 12167  2  0
 13172  2  0
 14177  2  0
 15182  1  0
 16183  2  0
 17193  1  0
 18193  2  0
 19195  2  0
 20196  2  0
 21209  2  0
 22217  2  0
 23226  2  0
 24228  1  0
 25228  2  0
 26230  1  0
 27230  2  0
 28231  2  0
 29235  2  0
 30239  2  0
 31244  2  0
 32257  2  0
 33263  2  0
 34265  2  0
 35269  2  0
 36270  2  0
 37277  2  0
 38284  2  0
 39287  2  0
 40292  2  0
 41293  2  0
 42295  2  0
 43308  2  0
 44323  1  0
 45314  2  0
 46317  2  0
 47318  2  0
 48320  2  0
 49324  2  0
 50326  2  0
 51344  1  0
 52350  1  0
 53339  2  0
 54341  2  0
 55342  2  0
 56344  2  0
 57346  2  0
 58349  2  0
 59350  2  0
 60355  1  0
 61351  2  0
 62363  1  0
 63365  1  0
 64359  2  0
366 65  1  0
 66364  2  0
 67368  1  0
 68367  2  0
 69368  2  0
 70369  2  0
 71371  2  0
 72384  1  0
 73381  2  0
 74380  2  0
 75384  2  0
 76385  2  0
 77386  2  0
 78391  1  0
 79395  2  0
 80400  1  0
 81398  2  0
 82402  2  0
 83408  2  0
 84410  2  0
 85415  2  0
 86416  2  0
 87419  2  0
 88153  1  0
 88156  1  0
 88157  1  0
 89158  1  0
161 89  1  0
159 90  1  1
 90165  1  0
166 91  1  0
 91172  1  0
 92170  1  0
 92177  1  0
173 93  1  0
 93183  1  0
185 94  1  0
 94195  1  0
186 95  1  0
 95196  1  0
 96200  1  0
 96209  1  0
210 97  1  0
 97217  1  0
 98218  1  0
 98227  1  0
220 99  1  0
 99226  1  0
100227  1  0
101227  2  0
101427  1  0
102229  1  0
102231  1  0
232103  1  0
103235  1  0
234104  1  0
104239  1  0
237105  1  0
105244  1  0
243106  1  0
106257  1  0
252107  1  1
107263  1  0
247108  1  0
108277  1  0
254109  1  0
109265  1  0
249110  1  6
110295  1  0
256111  1  0
111287  1  0
268112  1  0
112270  1  0
113269  1  0
273113  1  0
274114  1  0
114284  1  0
266115  1  0
115308  1  0
116292  1  0
299116  1  0
286117  1  0
117341  1  0
294118  1  0
118320  1  0
289119  1  1
119339  1  0
120293  1  0
332120  1  0
300121  1  0
121342  1  0
310122  1  0
122318  1  0
307123  1  0
123326  1  0
124314  1  0
322124  1  6
125317  1  0
319125  1  0
309126  1  0
126351  1  0
127324  1  0
336127  1  6
330128  1  0
128346  1  0
343129  1  0
129349  1  0
130338  1  0
130364  1  0
131316  1  0
132359  1  0
132361  1  0
133327  1  0
133376  2  0
345134  1  0
134381  1  0
354135  1  6
135369  1  0
136360  1  0
136376  1  0
370137  1  0
137395  1  0
383138  1  1
138386  1  0
139367  1  0
140371  1  0
141389  1  0
141398  1  0
390142  1  0
142402  1  0
143380  1  0
144385  1  0
401145  1  0
145408  1  0
405146  1  0
146410  1  0
406147  1  1
147416  1  0
148404  1  0
148418  2  0
149412  1  0
149418  1  0
150415  1  0
417151  1  1
152419  1  0
153154  1  0
153158  1  1
154155  1  0
155156  1  0
157159  1  0
159160  1  0
160163  1  6
161162  1  6
161167  1  0
162164  1  0
164168  1  0
165166  1  0
166169  1  6
168170  1  0
169171  1  0
171174  2  0
171175  1  0
172173  1  0
173176  1  6
174178  1  0
175179  2  0
176181  1  0
177180  1  0
178182  2  0
179182  1  0
180184  1  0
181187  2  0
181188  1  0
183185  1  0
186184  1  6
185189  1  6
186193  1  0
187190  1  0
188191  2  0
189192  1  0
190194  2  0
191194  1  0
192198  2  0
192199  1  0
195200  1  0
196197  1  0
197201  1  0
198203  1  0
199204  2  0
201202  1  0
202205  1  0
203206  2  0
204206  1  0
205207  1  0
207208  1  0
208211  1  0
209210  1  0
210212  1  6
211213  1  0
212215  1  0
213214  1  0
214216  1  0
215218  1  0
216219  1  0
217220  1  0
219221  1  0
220222  1  1
221223  1  0
222224  1  0
223225  1  0
224228  1  0
225230  1  0
226229  1  0
232231  1  1
232233  1  0
234235  1  0
234236  1  6
236240  1  0
236241  1  0
237238  1  1
237239  1  0
238242  1  0
242245  1  0
242246  1  0
243244  1  0
243251  1  6
247250  1  6
247257  1  0
248249  1  0
248260  1  0
248264  1  1
249263  1  0
250253  1  0
251267  1  0
252255  1  0
252269  1  0
253271  1  0
253272  1  0
254259  1  1
254270  1  0
255275  1  0
255276  1  0
256258  1  6
256265  1  0
258262  1  0
259278  1  0
259279  1  0
260281  1  0
261266  1  0
262282  1  0
262283  1  0
266293  1  6
267290  2  0
267291  1  0
268280  1  6
268284  1  0
273285  1  6
273292  1  0
274277  1  0
274296  1  1
280298  1  0
285304  1  0
286287  1  0
286303  1  1
288289  1  0
288305  1  0
288315  1  6
289314  1  0
290312  1  0
291313  2  0
294297  1  1
294317  1  0
295316  1  0
297302  1  0
298344  1  0
299311  1  6
299324  1  0
300301  1  6
300318  1  0
301306  1  0
302328  1  0
302329  1  0
303327  1  0
304350  1  0
305333  1  0
306334  1  0
306335  1  0
307320  1  0
307321  1  6
308309  1  0
309331  1  6
310325  1  1
310326  1  0
311337  1  0
312323  2  0
313323  1  0
319340  1  6
319349  1  0
321348  1  0
322346  1  0
322347  1  0
325352  1  0
327360  2  0
330342  1  0
330355  1  1
331357  1  0
332356  1  1
332368  1  0
336353  1  0
336359  1  0
337367  1  0
338339  1  0
338363  1  1
340358  1  0
341345  1  0
343351  1  0
343362  1  1
345365  1  1
348371  1  0
352373  2  0
352374  1  0
354364  1  0
354366  1  0
356380  1  0
357378  2  0
357379  1  0
358384  1  0
361369  1  0
361375  1  1
362385  1  0
366382  1  6
370372  1  1
370386  1  0
372377  1  0
373387  1  0
374388  2  0
377393  1  0
377394  1  0
378396  1  0
379397  2  0
381389  1  0
383392  1  0
383398  1  0
387391  2  0
388391  1  0
390395  1  0
390399  1  6
396400  2  0
397400  1  0
399404  1  0
401402  1  0
401403  1  6
403409  1  0
404412  2  0
405408  1  0
405411  1  1
406407  1  0
406410  1  0
407413  1  0
407414  1  0
409415  1  0
411419  1  0
416417  1  0
417420  1  0
420421  1  0
421422  2  0
421423  1  0
422424  1  0
423425  2  0
424426  2  0
425426  1  0
V    1 0
V    2 1
V    3 2
V    4 3
V    5 4
V    6 5
V    7 6
V    8 7
V    9 8
V   10 9
V   11 10
V   12 11
V   13 12
V   14 13
V   15 14
V   16 15
V   17 16
V   18 17
V   19 18
V   20 19
V   21 20
V   22 21
V   23 22
V   24 23
V   25 24
V   26 25
V   27 26
V   28 27
V   29 28
V   30 29
V   31 30
V   32 31
V   33 32
V   34 33
V   35 34
V   36 35
V   37 36
V   38 37
V   39 38
V   40 39
V   41 40
V   42 41
V   43 42
V   44 43
V   45 44
V   46 45
V   47 46
V   48 47
V   49 48
V   50 49
V   51 50
V   52 51
V   53 52
V   54 53
V   55 54
V   56 55
V   57 56
V   58 57
V   59 58
V   60 59
V   61 60
V   62 61
V   63 62
V   64 63
V   65 64
V   66 65
V   67 66
V   68 67
V   69 68
V   70 69
V   71 70
V   72 71
V   73 72
V   74 73
V   75 74
V   76 75
V   77 76
V   78 77
V   79 78
V   80 79
V   81 80
V   82 81
V   83 82
V   84 83
V   85 84
V   86 85
V   87 86
V   88 87
V   89 88
V   90 89
V   91 90
V   92 91
V   93 92
V   94 93
V   95 94
V   96 95
V   97 96
V   98 97
V   99 98
V  100 99
V  101 100
V  102 101
V  103 102
V  104 103
V  105 104
V  106 105
V  107 106
V  108 107
V  109 108
V  110 109
V  111 110
V  112 111
V  113 112
V  114 113
V  115 114
V  116 115
V  117 116
V  118 117
V  119 118
V  120 119
V  121 120
V  122 121
V  123 122
V  124 123
V  125 124
V  126 125
V  127 126
V  128 127
V  129 128
V  130 129
V  131 130
V  132 131
V  133 132
V  134 133
V  135 134
V  136 135
V  137 136
V  138 137
V  139 138
V  140 139
V  141 140
V  142 141
V  143 142
V  144 143
V  145 144
V  146 145
V  147 146
V  148 147
V  149 148
V  150 149
V  151 150
V  152 151
V  153 152
V  154 153
V  155 154
V  156 155
V  157 156
V  158 157
V  159 158
V  160 159
V  161 160
V  162 161
V  163 162
V  164 163
V  165 164
V  166 165
V  167 166
V  168 167
V  169 168
V  170 169
V  171 170
V  172 171
V  173 172
V  174 173
V  175 174
V  176 175
V  177 176
V  178 177
V  179 178
V  180 179
V  181 180
V  182 181
V  183 182
V  184 183
V  185 184
V  186 185
V  187 186
V  188 187
V  189 188
V  190 189
V  191 190
V  192 191
V  193 192
V  194 193
V  195 194
V  196 195
V  197 196
V  198 197
V  199 198
V  200 199
V  201 200
V  202 201
V  203 202
V  204 203
V  205 204
V  206 205
V  207 206
V  208 207
V  209 208
V  210 209
V  211 210
V  212 211
V  213 212
V  214 213
V  215 214
V  216 215
V  217 216
V  218 217
V  219 218
V  220 219
V  221 220
V  222 221
V  223 222
V  224 223
V  225 224
V  226 225
V  227 226
V  228 227
V  229 228
V  230 229
V  231 230
V  232 231
V  233 232
V  234 233
V  235 234
V  236 235
V  237 236
V  238 237
V  239 238
V  240 239
V  241 240
V  242 241
V  243 242
V  244 243
V  245 244
V  246 245
V  247 246
V  248 247
V  249 248
V  250 249
V  251 250
V  252 251
V  253 252
V  254 253
V  255 254
V  256 255
V  257 256
V  258 257
V  259 258
V  260 259
V  261 260
V  262 261
V  263 262
V  264 263
V  265 264
V  266 265
V  267 266
V  268 267
V  269 268
V  270 269
V  271 270
V  272 271
V  273 272
V  274 273
V  275 274
V  276 275
V  277 276
V  278 277
V  279 278
V  280 279
V  281 280
V  282 281
V  283 282
V  284 283
V  285 284
V  286 285
V  287 286
V  288 287
V  289 288
V  290 289
V  291 290
V  292 291
V  293 292
V  294 293
V  295 294
V  296 295
V  297 296
V  298 297
V  299 298
V  300 299
V  301 300
V  302 301
V  303 302
V  304 303
V  305 304
V  306 305
V  307 306
V  308 307
V  309 308
V  310 309
V  311 310
V  312 311
V  313 312
V  314 313
V  315 314
V  316 315
V  317 316
V  318 317
V  319 318
V  320 319
V  321 320
V  322 321
V  323 322
V  324 323
V  325 324
V  326 325
V  327 326
V  328 327
V  329 328
V  330 329
V  331 330
V  332 331
V  333 332
V  334 333
V  335 334
V  336 335
V  337 336
V  338 337
V  339 338
V  340 339
V  341 340
V  342 341
V  343 342
V  344 343
V  345 344
V  346 345
V  347 346
V  348 347
V  349 348
V  350 349
V  351 350
V  352 351
V  353 352
V  354 353
V  355 354
V  356 355
V  357 356
V  358 357
V  359 358
V  360 359
V  361 360
V  362 361
V  363 362
V  364 363
V  365 364
V  366 365
V  367 366
V  368 367
V  369 368
V  370 369
V  371 370
V  372 371
V  373 372
V  374 373
V  375 374
V  376 375
V  377 376
V  378 377
V  379 378
V  380 379
V  381 380
V  382 381
V  383 382
V  384 383
V  385 384
V  386 385
V  387 386
V  388 387
V  389 388
V  390 389
V  391 390
V  392 391
V  393 392
V  394 393
V  395 394
V  396 395
V  397 396
V  398 397
V  399 398
V  400 399
V  401 400
V  402 401
V  403 402
V  404 403
V  405 404
V  406 405
V  407 406
V  408 407
V  409 408
V  410 409
V  411 410
V  412 411
V  413 412
V  414 413
V  415 414
V  416 415
V  417 416
V  418 417
V  419 418
V  420 419
V  421 420
V  422 421
V  423 422
V  424 423
V  425 424
V  426 425
V  427 536
M  END
