 
     RDKit          2D

202206  0  0  1  0  0  0  0  0999 V2000
   24.4381  -17.6672    0.0000 C   0  0  0  0  0  0  0  0  0  0  0  0
   24.4321  -16.3168    0.0000 C   0  0  0  0  0  0  0  0  0  0  0  0
   25.6030  -18.3338    0.0000 C   0  0  0  0  0  0  0  0  0  0  0  0
   23.2847  -18.3454    0.0000 C   0  0  0  0  0  0  0  0  0  0  0  0
   23.2672  -15.6445    0.0000 C   0  0  0  0  0  0  0  0  0  0  0  0
   25.5972  -15.6445    0.0000 C   0  0  0  0  0  0  0  0  0  0  0  0
   26.7623  -17.6499    0.0000 C   0  0  0  0  0  0  0  0  0  0  0  0
   25.6087  -19.6668    0.0000 C   0  0  0  0  0  0  0  0  0  0  0  0
   26.7623  -19.2729    0.0000 O   0  0  0  0  0  0  0  0  0  0  0  0
   22.5833  -17.0126    0.0000 O   0  0  0  0  0  0  0  0  0  0  0  0
   23.2905  -19.6784    0.0000 C   0  0  0  0  0  0  0  0  0  0  0  0
   23.2672  -14.2999    0.0000 C   0  0  0  0  0  0  0  0  0  0  0  0
   26.7623  -16.3109    0.0000 C   0  0  0  0  0  0  0  0  0  0  0  0
   25.5972  -14.2999    0.0000 C   0  0  0  0  0  0  0  0  0  0  0  0
   27.9213  -18.3221    0.0000 N   0  0  0  0  0  0  0  0  0  0  0  0
   24.4554  -20.3450    0.0000 C   0  0  0  0  0  0  0  0  0  0  0  0
   22.1139  -20.3391    0.0000 O   0  0  0  0  0  0  0  0  0  0  0  0
   24.4321  -13.6277    0.0000 C   0  0  0  0  0  0  0  0  0  0  0  0
   22.0966  -13.6277    0.0000 O   0  0  0  0  0  0  0  0  0  0  0  0
   29.2659  -18.3221    0.0000 C   0  0  0  0  0  0  0  0  0  0  0  0
   27.9213  -16.9998    0.0000 C   0  0  0  0  0  0  0  0  0  0  0  0
   25.6435  -17.0412    0.0000 C   0  0  0  0  0  0  0  0  0  0  0  0
   20.8657  -14.3423    0.0000 C   0  0  0  0  0  0  0  0  0  0  0  0
   29.6100  -14.9100    0.0000 Cl  0  0  0  0  0  0  0  0  0  0  0  0
   23.8762  -18.4036    0.0000 C   0  0  0  0  0  0  0  0  0  0  0  0
   23.8702  -17.0454    0.0000 C   0  0  0  0  0  0  0  0  0  0  0  0
   25.0479  -19.0741    0.0000 C   0  0  0  0  0  0  0  0  0  0  0  0
   22.7161  -19.0858    0.0000 C   0  0  0  0  0  0  0  0  0  0  0  0
   22.6985  -16.3692    0.0000 C   0  0  0  0  0  0  0  0  0  0  0  0
   25.0420  -16.3692    0.0000 C   0  0  0  0  0  0  0  0  0  0  0  0
   26.2139  -18.3862    0.0000 C   0  0  0  0  0  0  0  0  0  0  0  0
   25.0536  -20.4149    0.0000 C   0  0  0  0  0  0  0  0  0  0  0  0
   26.2139  -20.0187    0.0000 O   0  0  0  0  0  0  0  0  0  0  0  0
   22.0106  -17.7452    0.0000 O   0  0  0  0  0  0  0  0  0  0  0  0
   22.7219  -20.4265    0.0000 C   0  0  0  0  0  0  0  0  0  0  0  0
   22.6985  -15.0168    0.0000 C   0  0  0  0  0  0  0  0  0  0  0  0
   26.2139  -17.0395    0.0000 C   0  0  0  0  0  0  0  0  0  0  0  0
   25.0420  -15.0168    0.0000 C   0  0  0  0  0  0  0  0  0  0  0  0
   27.3797  -19.0624    0.0000 N   0  0  0  0  0  0  0  0  0  0  0  0
   23.8936  -21.0970    0.0000 C   0  0  0  0  0  0  0  0  0  0  0  0
   21.5385  -21.0911    0.0000 O   0  0  0  0  0  0  0  0  0  0  0  0
   23.8702  -14.3406    0.0000 C   0  0  0  0  0  0  0  0  0  0  0  0
   21.5211  -14.3406    0.0000 O   0  0  0  0  0  0  0  0  0  0  0  0
   28.7321  -19.0624    0.0000 C   0  0  0  0  0  0  0  0  0  0  0  0
   27.3797  -17.7324    0.0000 C   0  0  0  0  0  0  0  0  0  0  0  0
   25.0886  -17.7036    0.0000 C   0  0  0  0  0  0  0  0  0  0  0  0
   20.2830  -15.0594    0.0000 C   0  0  0  0  0  0  0  0  0  0  0  0
   16.4762   -9.1832    0.0000 Cl  0  0  0  0  0  0  0  0  0  0  0  0
   17.1806  -11.8405    0.0000 O   0  0  0  0  0  0  0  0  0  0  0  0
    7.4494  -10.6994    0.0000 C   0  0  0  0  0  0  0  0  0  0  0  0
    7.4494   -9.3754    0.0000 C   0  0  0  0  0  0  0  0  0  0  0  0
    8.6340  -11.3961    0.0000 C   0  0  0  0  0  0  0  0  0  0  0  0
    6.3345  -11.3265    0.0000 C   0  0  0  0  0  0  0  0  0  0  0  0
    8.6340  -10.0723    0.0000 C   0  0  0  0  0  0  0  0  0  0  0  0
    6.3345   -8.7483    0.0000 C   0  0  0  0  0  0  0  0  0  0  0  0
    8.6340   -8.7483    0.0000 C   0  0  0  0  0  0  0  0  0  0  0  0
    9.7489  -10.6994    0.0000 C   0  0  0  0  0  0  0  0  0  0  0  0
    8.6340  -12.6504    0.0000 C   0  0  0  0  0  0  0  0  0  0  0  0
    5.0106  -10.0025    0.0000 O   0  0  0  0  0  0  0  0  0  0  0  0
    6.3345  -12.6504    0.0000 C   0  0  0  0  0  0  0  0  0  0  0  0
   10.8637  -10.0723    0.0000 C   0  0  0  0  0  0  0  0  0  0  0  0
    6.3345   -7.4244    0.0000 C   0  0  0  0  0  0  0  0  0  0  0  0
    9.7489   -9.4451    0.0000 C   0  0  0  0  0  0  0  0  0  0  0  0
    8.6340   -7.4244    0.0000 C   0  0  0  0  0  0  0  0  0  0  0  0
   10.8637  -11.3961    0.0000 N   0  0  0  0  0  0  0  0  0  0  0  0
    7.4494  -13.3472    0.0000 C   0  0  0  0  0  0  0  0  0  0  0  0
    5.2197  -13.3472    0.0000 O   0  0  0  0  0  0  0  0  0  0  0  0
    7.5191   -6.7973    0.0000 C   0  0  0  0  0  0  0  0  0  0  0  0
    5.2197   -6.7973    0.0000 O   0  0  0  0  0  0  0  0  0  0  0  0
    4.0351   -7.4244    0.0000 C   0  0  0  0  0  0  0  0  0  0  0  0
    9.8882  -12.3020    0.0000 O   0  0  0  0  0  0  0  0  0  0  0  0
   12.2626  -11.3961    0.0000 C   0  0  0  0  0  0  0  0  0  0  0  0
   17.1806  -11.8405    0.0000 O   0  0  0  0  0  0  0  0  0  0  0  0
   17.1806  -11.8405    0.0000 O   0  0  0  0  0  0  0  0  0  0  0  0
   26.6164  -16.3136    0.0000 O   0  0  0  0  0  0  0  0  0  0  0  0
   25.4050  -17.0138    0.0000 C   0  0  0  0  0  0  0  0  0  0  0  0
   24.1928  -16.3148    0.0000 C   0  0  0  0  0  0  0  0  0  0  0  0
   25.4056  -18.4130    0.0000 O   0  0  0  0  0  0  0  0  0  0  0  0
   22.9815  -17.0150    0.0000 C   0  0  0  0  0  0  0  0  0  0  0  0
   21.7750  -16.3132    0.0000 C   0  0  0  0  0  0  0  0  0  0  0  0
   20.5638  -17.0135    0.0000 C   0  0  0  0  0  0  0  0  0  0  0  0
   20.5644  -18.4127    0.0000 C   0  0  0  0  0  0  0  0  0  0  0  0
   21.7765  -19.1116    0.0000 C   0  0  0  0  0  0  0  0  0  0  0  0
   22.9878  -18.4113    0.0000 C   0  0  0  0  0  0  0  0  0  0  0  0
   19.3530  -19.1128    0.0000 C   0  0  0  0  0  0  0  0  0  0  0  0
   18.1408  -18.4139    0.0000 C   0  0  0  0  0  0  0  0  0  0  0  0
   16.9295  -19.1141    0.0000 C   0  0  0  0  0  0  0  0  0  0  0  0
   18.1401  -17.0147    0.0000 C   0  0  0  0  0  0  0  0  0  0  0  0
   24.1920  -14.9103    0.0000 C   0  0  0  0  0  0  0  0  0  0  0  0
   30.7421  -16.2559    0.0000 C   0  0  0  0  0  0  0  0  0  0  0  0
   30.7421  -17.6563    0.0000 C   0  0  0  0  0  0  0  0  0  0  0  0
   31.9578  -18.3565    0.0000 N   0  0  0  0  0  0  0  0  0  0  0  0
   33.1663  -17.6563    0.0000 C   0  0  0  0  0  0  0  0  0  0  0  0
   33.1663  -16.2559    0.0000 C   0  0  0  0  0  0  0  0  0  0  0  0
   31.9578  -15.5557    0.0000 C   0  0  0  0  0  0  0  0  0  0  0  0
   29.5296  -18.3570    0.0000 C   0  0  0  0  0  0  0  0  0  0  0  0
   28.3166  -17.6575    0.0000 O   0  0  0  0  0  0  0  0  0  0  0  0
   27.1042  -18.3583    0.0000 C   0  0  0  0  0  0  0  0  0  0  0  0
   25.8910  -17.6587    0.0000 C   0  0  0  0  0  0  0  0  0  0  0  0
   27.1048  -19.7587    0.0000 O   0  0  0  0  0  0  0  0  0  0  0  0
   24.6787  -18.3595    0.0000 C   0  0  0  0  0  0  0  0  0  0  0  0
   23.4712  -17.6571    0.0000 C   0  0  0  0  0  0  0  0  0  0  0  0
   22.2589  -18.3580    0.0000 C   0  0  0  0  0  0  0  0  0  0  0  0
   22.2595  -19.7584    0.0000 C   0  0  0  0  0  0  0  0  0  0  0  0
   23.4727  -20.4579    0.0000 C   0  0  0  0  0  0  0  0  0  0  0  0
   24.6850  -19.7570    0.0000 C   0  0  0  0  0  0  0  0  0  0  0  0
   21.0471  -20.4591    0.0000 C   0  0  0  0  0  0  0  0  0  0  0  0
   19.8339  -19.7596    0.0000 C   0  0  0  0  0  0  0  0  0  0  0  0
   18.6216  -20.4604    0.0000 C   0  0  0  0  0  0  0  0  0  0  0  0
   19.8332  -18.3592    0.0000 C   0  0  0  0  0  0  0  0  0  0  0  0
   25.8903  -16.2583    0.0000 C   0  0  0  0  0  0  0  0  0  0  0  0
   27.5800   -8.1200    0.0000 O   0  0  0  0  0  0  0  0  0  0  0  0
   26.3900   -8.8200    0.0000 C   0  0  0  0  0  0  0  0  0  0  0  0
   25.2000   -8.1200    0.0000 C   0  0  0  0  0  0  0  0  0  0  0  0
   26.3900  -10.2200    0.0000 O   0  0  0  0  0  0  0  0  0  0  0  0
   24.0100   -8.8200    0.0000 C   0  0  0  0  0  0  0  0  0  0  0  0
   22.7500   -8.1200    0.0000 C   0  0  0  0  0  0  0  0  0  0  0  0
   21.5600   -8.8200    0.0000 C   0  0  0  0  0  0  0  0  0  0  0  0
   21.5600  -10.2200    0.0000 C   0  0  0  0  0  0  0  0  0  0  0  0
   22.7500  -10.9200    0.0000 C   0  0  0  0  0  0  0  0  0  0  0  0
   24.0100  -10.2200    0.0000 C   0  0  0  0  0  0  0  0  0  0  0  0
   20.3700  -10.9200    0.0000 C   0  0  0  0  0  0  0  0  0  0  0  0
   19.1100  -10.2200    0.0000 C   0  0  0  0  0  0  0  0  0  0  0  0
   17.9200  -10.9200    0.0000 C   0  0  0  0  0  0  0  0  0  0  0  0
   19.1100   -8.8200    0.0000 C   0  0  0  0  0  0  0  0  0  0  0  0
   25.2000   -6.7200    0.0000 C   0  0  0  0  0  0  0  0  0  0  0  0
   28.7981   -8.8101    0.0000 Al  0  0  0  0  0  3  0  0  0  0  0  0
   30.2400   -8.1900    0.0000 O   0  0  0  0  0  0  0  0  0  0  0  0
   31.4300   -8.8900    0.0000 C   0  0  0  0  0  0  0  0  0  0  0  0
   32.6200   -8.1900    0.0000 C   0  0  0  0  0  0  0  0  0  0  0  0
   31.4300  -10.2900    0.0000 O   0  0  0  0  0  0  0  0  0  0  0  0
   33.8100   -8.8900    0.0000 C   0  0  0  0  0  0  0  0  0  0  0  0
   35.0700   -8.1900    0.0000 C   0  0  0  0  0  0  0  0  0  0  0  0
   36.2600   -8.8900    0.0000 C   0  0  0  0  0  0  0  0  0  0  0  0
   36.2600  -10.2900    0.0000 C   0  0  0  0  0  0  0  0  0  0  0  0
   35.0700  -10.9900    0.0000 C   0  0  0  0  0  0  0  0  0  0  0  0
   33.8100  -10.2900    0.0000 C   0  0  0  0  0  0  0  0  0  0  0  0
   37.4500  -10.9900    0.0000 C   0  0  0  0  0  0  0  0  0  0  0  0
   38.7100  -10.2900    0.0000 C   0  0  0  0  0  0  0  0  0  0  0  0
   39.9000  -10.9900    0.0000 C   0  0  0  0  0  0  0  0  0  0  0  0
   38.7100   -8.8900    0.0000 C   0  0  0  0  0  0  0  0  0  0  0  0
   32.6200   -6.7900    0.0000 C   0  0  0  0  0  0  0  0  0  0  0  0
   28.7912  -10.2191    0.0000 O   0  0  0  0  0  0  0  0  0  0  0  0
   20.3332   -6.2439    0.0000 O   0  0  0  0  0  0  0  0  0  0  0  0
   19.1211   -6.9446    0.0000 C   0  0  0  0  0  0  0  0  0  0  0  0
   17.9081   -6.2451    0.0000 C   0  0  0  0  0  0  0  0  0  0  0  0
   19.1217   -8.3447    0.0000 O   0  0  0  0  0  0  0  0  0  0  0  0
   16.6960   -6.9458    0.0000 C   0  0  0  0  0  0  0  0  0  0  0  0
   15.4888   -6.2435    0.0000 C   0  0  0  0  0  0  0  0  0  0  0  0
   14.2768   -6.9443    0.0000 C   0  0  0  0  0  0  0  0  0  0  0  0
   14.2774   -8.3444    0.0000 C   0  0  0  0  0  0  0  0  0  0  0  0
   15.4903   -9.0437    0.0000 C   0  0  0  0  0  0  0  0  0  0  0  0
   16.7023   -8.3429    0.0000 C   0  0  0  0  0  0  0  0  0  0  0  0
   13.0652   -9.0449    0.0000 C   0  0  0  0  0  0  0  0  0  0  0  0
   11.8523   -8.3456    0.0000 C   0  0  0  0  0  0  0  0  0  0  0  0
   10.6402   -9.0462    0.0000 C   0  0  0  0  0  0  0  0  0  0  0  0
   11.8516   -6.9455    0.0000 C   0  0  0  0  0  0  0  0  0  0  0  0
   17.9073   -4.8397    0.0000 C   0  0  0  0  0  0  0  0  0  0  0  0
   25.1750   -7.3860    0.0000 C   0  0  0  0  0  0  0  0  0  0  0  0
   26.3902   -6.7082    0.0000 C   0  0  0  0  0  0  0  0  0  0  0  0
   24.0241   -6.6381    0.0000 C   0  0  0  0  0  0  0  0  0  0  0  0
   25.2159   -8.7940    0.0000 N   0  0  0  0  0  0  0  0  0  0  0  0
   27.5997   -7.4211    0.0000 C   0  0  0  0  0  0  0  0  0  0  0  0
   22.7971   -7.3218    0.0000 O   0  0  0  0  0  0  0  0  0  0  0  0
   24.0240   -5.2357    0.0000 O   0  0  0  0  0  0  0  0  0  0  0  0
   28.8269   -6.7373    0.0000 C   0  0  0  0  0  0  0  0  0  0  0  0
   30.0364   -7.4562    0.0000 C   0  0  0  0  0  0  0  0  0  0  0  0
   31.2633   -6.7724    0.0000 N   0  0  0  0  0  0  0  0  0  0  0  0
   28.9800  -17.2200    0.0000 O   0  0  0  0  0  0  0  0  0  0  0  0
   27.7900  -17.9200    0.0000 C   0  0  0  0  0  0  0  0  0  0  0  0
   26.6000  -17.2200    0.0000 C   0  0  0  0  0  0  0  0  0  0  0  0
   27.7900  -19.3200    0.0000 O   0  0  0  0  0  0  0  0  0  0  0  0
   25.4100  -17.9200    0.0000 C   0  0  0  0  0  0  0  0  0  0  0  0
   24.1500  -17.2200    0.0000 C   0  0  0  0  0  0  0  0  0  0  0  0
   22.9600  -17.9200    0.0000 C   0  0  0  0  0  0  0  0  0  0  0  0
   22.9600  -19.3200    0.0000 C   0  0  0  0  0  0  0  0  0  0  0  0
   24.1500  -20.0200    0.0000 C   0  0  0  0  0  0  0  0  0  0  0  0
   25.4100  -19.3200    0.0000 C   0  0  0  0  0  0  0  0  0  0  0  0
   21.7700  -20.0200    0.0000 C   0  0  0  0  0  0  0  0  0  0  0  0
   20.5100  -19.3200    0.0000 C   0  0  0  0  0  0  0  0  0  0  0  0
   19.3200  -20.0200    0.0000 C   0  0  0  0  0  0  0  0  0  0  0  0
   20.5100  -17.9200    0.0000 C   0  0  0  0  0  0  0  0  0  0  0  0
   26.6000  -15.8200    0.0000 C   0  0  0  0  0  0  0  0  0  0  0  0
   31.7800  -18.6200    0.0000 Na  0  0  0  0  0 15  0  0  0  0  0  0
   28.4900  -19.3900    0.0000 O   0  0  0  0  0  0  0  0  0  0  0  0
   27.3000  -20.0900    0.0000 C   0  0  0  0  0  0  0  0  0  0  0  0
   26.1100  -19.3900    0.0000 C   0  0  0  0  0  0  0  0  0  0  0  0
   27.3000  -21.4900    0.0000 O   0  0  0  0  0  0  0  0  0  0  0  0
   24.9200  -20.0900    0.0000 C   0  0  0  0  0  0  0  0  0  0  0  0
   23.6600  -19.3900    0.0000 C   0  0  0  0  0  0  0  0  0  0  0  0
   22.4700  -20.0900    0.0000 C   0  0  0  0  0  0  0  0  0  0  0  0
   22.4700  -21.4900    0.0000 C   0  0  0  0  0  0  0  0  0  0  0  0
   23.6600  -22.1900    0.0000 C   0  0  0  0  0  0  0  0  0  0  0  0
   24.9200  -21.4900    0.0000 C   0  0  0  0  0  0  0  0  0  0  0  0
   21.2800  -22.1900    0.0000 C   0  0  0  0  0  0  0  0  0  0  0  0
   20.0200  -21.4900    0.0000 C   0  0  0  0  0  0  0  0  0  0  0  0
   18.8300  -22.1900    0.0000 C   0  0  0  0  0  0  0  0  0  0  0  0
   20.0200  -20.0900    0.0000 C   0  0  0  0  0  0  0  0  0  0  0  0
   26.1100  -17.9900    0.0000 C   0  0  0  0  0  0  0  0  0  0  0  0
   30.8543  -18.2517    0.0000 Na  0  0  0  0  0 15  0  0  0  0  0  0
   32.1300  -20.5100    0.0000 O   0  0  0  0  0  0  0  0  0  0  0  0
   32.1300  -21.9800    0.0000 O   0  0  0  0  0  0  0  0  0  0  0  0
  1  2  1  0
  1  3  1  0
  1  4  1  0
  2  5  2  0
  2  6  1  0
  3  7  1  0
  3  8  1  0
  3  9  1  1
  4 10  1  6
  4 11  1  0
  5 12  1  0
  6 13  1  0
  6 14  2  0
  7 15  1  0
  8 16  1  0
 11 17  2  0
 12 18  2  0
 12 19  1  0
 15 20  1  0
  5 10  1  0
  7 13  1  1
 11 16  1  0
 14 18  1  0
 15 21  1  0
  1 22  1  1
 22 21  1  0
 19 23  1  0
 25 26  1  0
 25 27  1  0
 25 28  1  0
 26 29  2  0
 26 30  1  0
 27 31  1  0
 27 32  1  0
 27 33  1  1
 28 34  1  6
 28 35  1  0
 29 36  1  0
 30 37  1  0
 30 38  2  0
 31 39  1  0
 32 40  1  0
 35 41  2  0
 36 42  2  0
 36 43  1  0
 39 44  1  0
 29 34  1  0
 31 37  1  1
 35 40  1  0
 38 42  1  0
 39 45  1  0
 25 46  1  1
 46 45  1  0
 43 47  1  0
 50 51  1  0
 50 52  1  0
 50 53  1  0
 50 54  1  1
 51 55  2  0
 51 56  1  0
 52 57  1  0
 52 58  1  0
 53 59  1  6
 53 60  1  0
 54 61  1  0
 55 62  1  0
 56 63  1  0
 56 64  2  0
 57 65  1  0
 58 66  1  0
 60 67  2  0
 62 68  2  0
 62 69  1  0
 69 70  1  0
 55 59  1  0
 57 63  1  1
 60 66  1  0
 61 65  1  0
 64 68  1  0
 52 71  1  1
 65 72  1  0
 76 78  2  0
 77 79  1  0
 79 80  2  0
 80 81  1  0
 81 82  2  0
 82 83  1  0
 83 84  2  0
 84 79  1  0
 82 85  1  0
 75 76  1  0
 85 86  1  0
 86 87  1  0
 76 77  1  0
 86 88  1  0
 77 89  1  0
 98100  2  0
 94 95  1  0
 99101  1  0
 95 90  2  0
 91 96  1  0
 90 91  1  0
 96 97  1  0
101102  2  0
102103  1  0
103104  2  0
104105  1  0
105106  2  0
106101  1  0
 91 92  2  0
104107  1  0
 97 98  1  0
107108  1  0
 92 93  1  0
108109  1  0
 98 99  1  0
108110  1  0
 93 94  2  0
 99111  1  0
113115  2  0
114116  1  0
116117  2  0
117118  1  0
118119  2  0
119120  1  0
120121  2  0
121116  1  0
119122  1  0
112113  1  0
122123  1  0
123124  1  0
113114  1  0
123125  1  0
114126  1  0
112127  1  0
129131  2  0
130132  1  0
132133  2  0
133134  1  0
134135  2  0
135136  1  0
136137  2  0
137132  1  0
135138  1  0
128129  1  0
138139  1  0
139140  1  0
129130  1  0
139141  1  0
130142  1  0
127128  1  0
127143  1  0
145147  2  0
146148  1  0
148149  2  0
149150  1  0
150151  2  0
151152  1  0
152153  2  0
153148  1  0
151154  1  0
144145  1  0
154155  1  0
155156  1  0
145146  1  0
155157  1  0
146158  1  0
159160  1  0
159161  1  0
159162  1  6
160163  1  0
161164  1  0
161165  2  0
163166  1  0
166167  1  0
167168  1  0
170172  2  0
171173  1  0
173174  2  0
174175  1  0
175176  2  0
176177  1  0
177178  2  0
178173  1  0
176179  1  0
169170  1  0
179180  1  0
180181  1  0
170171  1  0
180182  1  0
171183  1  0
186188  2  0
187189  1  0
189190  2  0
190191  1  0
191192  2  0
192193  1  0
193194  2  0
194189  1  0
192195  1  0
185186  1  0
195196  1  0
196197  1  0
186187  1  0
196198  1  0
187199  1  0
M  CHG  4 169  -1 184   1 185  -1 200   1
M  END
