23709079
     RDKit          2D

 46 46  0  0  1  0  0  0  0  0999 V2000
    2.2690    2.1200    0.0000 S   0  0  0  0  0  0  0  0  0  0  0  0
    0.2990    9.8658    0.0000 Na  0  0  0  0  0 15  0  0  0  0  0  0
    1.7690    2.9860    0.0000 O   0  0  0  0  0  0  0  0  0  0  0  0
    2.7690    1.2540    0.0000 O   0  0  0  0  0  0  0  0  0  0  0  0
    8.1592   11.3899    0.0000 O   0  0  0  0  0  0  0  0  0  0  0  0
    1.1650    9.3658    0.0000 O   0  0  0  0  0  0  0  0  0  0  0  0
    2.0310   10.8658    0.0000 O   0  0  0  0  0  0  0  0  0  0  0  0
    2.7671   15.5284    0.0000 O   0  0  0  0  0  0  0  0  0  0  0  0
    7.0972   15.0284    0.0000 O   0  0  0  0  0  0  0  0  0  0  0  0
    3.6331   14.0284    0.0000 O   0  0  0  0  0  0  0  0  0  0  0  0
    6.2312   16.5284    0.0000 O   0  0  0  0  0  0  0  0  0  0  0  0
    6.6793    0.8153    0.0000 N   0  0  0  0  0  0  0  0  0  0  0  0
    8.2791    4.5320    0.0000 N   0  0  0  0  0  0  0  0  0  0  0  0
    1.4030    1.6200    0.0000 N   0  0  0  0  0  0  0  0  0  0  0  0
    6.6793    2.4247    0.0000 C   0  0  0  0  0  0  0  0  0  0  0  0
    5.7331    2.1200    0.0000 C   0  0  0  0  0  0  0  0  0  0  0  0
    6.9900    3.3752    0.0000 C   0  0  0  0  0  0  0  0  0  0  0  0
    5.7331    1.1200    0.0000 C   0  0  0  0  0  0  0  0  0  0  0  0
    4.0010    2.1200    0.0000 C   0  0  0  0  0  0  0  0  0  0  0  0
    7.9685    3.5815    0.0000 C   0  0  0  0  0  0  0  0  0  0  0  0
    4.8671    2.6200    0.0000 C   0  0  0  0  0  0  0  0  0  0  0  0
    7.2629    1.6200    0.0000 C   0  0  0  0  0  0  0  0  0  0  0  0
    3.1350    2.6200    0.0000 C   0  0  0  0  0  0  0  0  0  0  0  0
    4.8671    0.6200    0.0000 C   0  0  0  0  0  0  0  0  0  0  0  0
    4.0010    1.1200    0.0000 C   0  0  0  0  0  0  0  0  0  0  0  0
    9.2576    4.7382    0.0000 C   0  0  0  0  0  0  0  0  0  0  0  0
    7.6113    5.2763    0.0000 C   0  0  0  0  0  0  0  0  0  0  0  0
    3.7631    9.8658    0.0000 C   0  0  0  0  0  0  0  0  0  0  0  0
    2.8971    9.3658    0.0000 C   0  0  0  0  0  0  0  0  0  0  0  0
    5.4952    9.8658    0.0000 C   0  0  0  0  0  0  0  0  0  0  0  0
    5.4952   10.8658    0.0000 C   0  0  0  0  0  0  0  0  0  0  0  0
    4.6291    9.3658    0.0000 C   0  0  0  0  0  0  0  0  0  0  0  0
    3.7631   10.8658    0.0000 C   0  0  0  0  0  0  0  0  0  0  0  0
    4.6291   11.3658    0.0000 C   0  0  0  0  0  0  0  0  0  0  0  0
    0.5369    2.1200    0.0000 C   0  0  0  0  0  0  0  0  0  0  0  0
    2.8971    8.3658    0.0000 C   0  0  0  0  0  0  0  0  0  0  0  0
    6.3891    9.3311    0.0000 C   0  0  0  0  0  0  0  0  0  0  0  0
    6.3891   11.4004    0.0000 C   0  0  0  0  0  0  0  0  0  0  0  0
    2.0310    9.8658    0.0000 C   0  0  0  0  0  0  0  0  0  0  0  0
    7.2952   10.8866    0.0000 C   0  0  0  0  0  0  0  0  0  0  0  0
    7.2952    9.8450    0.0000 C   0  0  0  0  0  0  0  0  0  0  0  0
    9.0272   10.8933    0.0000 C   0  0  0  0  0  0  0  0  0  0  0  0
    4.4992   15.5284    0.0000 C   0  0  0  0  0  0  0  0  0  0  0  0
    5.3652   15.0284    0.0000 C   0  0  0  0  0  0  0  0  0  0  0  0
    3.6331   15.0284    0.0000 C   0  0  0  0  0  0  0  0  0  0  0  0
    6.2312   15.5284    0.0000 C   0  0  0  0  0  0  0  0  0  0  0  0
  1  3  2  0
  1  4  2  0
  1 14  1  0
  1 23  1  0
  5 40  1  0
  5 42  1  0
  6 39  1  0
  7 39  2  0
  8 45  1  0
  9 46  1  0
 10 45  2  0
 11 46  2  0
 12 18  1  0
 12 22  1  0
 13 20  1  0
 13 26  1  0
 13 27  1  0
 14 35  1  0
 15 16  1  0
 15 17  1  0
 15 22  2  0
 16 18  2  0
 16 21  1  0
 17 20  1  0
 18 24  1  0
 19 21  2  0
 19 23  1  0
 19 25  1  0
 24 25  2  0
 28 29  1  0
 28 32  2  0
 28 33  1  0
 29 36  1  6
 29 39  1  0
 30 31  2  0
 30 32  1  0
 30 37  1  0
 31 34  1  0
 31 38  1  0
 33 34  2  0
 37 41  2  0
 38 40  2  0
 40 41  1  0
 43 44  1  0
 43 45  1  0
 44 46  1  0
M  CHG  2   2   1   6  -1
M  END
