 
 
 
 18 19  0  0  1  0  0  0  0  0999 V2000
   16.2055  -16.9039    0.0000 C   0  0  0  0  0  0  0  0  0  0  0  0
   16.6246  -18.2311    0.0000 C   0  0  0  0  0  0  0  0  0  0  0  0
   18.0217  -18.2311    0.0000 C   0  0  0  0  0  0  0  0  0  0  0  0
   18.4408  -16.9039    0.0000 C   0  0  0  0  0  0  0  0  0  0  0  0
   17.3232  -16.0657    0.0000 O   0  0  0  0  0  0  0  0  0  0  0  0
   14.8784  -16.4848    0.0000 C   0  0  0  0  0  0  0  0  0  0  0  0
   19.7679  -16.4848    0.0000 N   0  0  0  0  0  0  0  0  0  0  0  0
   13.8306  -17.3929    0.0000 O   0  0  0  0  0  0  0  0  0  0  0  0
   15.7864  -19.3487    0.0000 O   0  0  0  0  0  0  0  0  0  0  0  0
   20.9554  -17.1833    0.0000 C   0  0  0  0  0  0  0  0  0  0  0  0
   22.2127  -16.4848    0.0000 C   0  0  0  0  0  0  0  0  0  0  0  0
   22.2127  -15.0878    0.0000 C   0  0  0  0  0  0  0  0  0  0  0  0
   21.0252  -14.3893    0.0000 N   0  0  0  0  0  0  0  0  0  0  0  0
   19.7679  -15.0878    0.0000 C   0  0  0  0  0  0  0  0  0  0  0  0
   18.0217  -19.6311    0.0000 F   0  0  0  0  0  0  0  0  0  0  0  0
   19.4217  -18.2311    0.0000 F   0  0  0  0  0  0  0  0  0  0  0  0
   18.5553  -14.3740    0.0000 O   0  0  0  0  0  0  0  0  0  0  0  0
   23.3971  -14.4108    0.0000 O   0  0  0  0  0  0  0  0  0  0  0  0
  1  2  1  0     0  0
  2  3  1  0     0  0
  3  4  1  0     0  0
  4  5  1  0     0  0
  1  5  1  0     0  0
  1  6  1  1     0  0
  4  7  1  1     0  0
  6  8  1  0     0  0
  2  9  1  6     0  0
  7 10  1  0     0  0
 10 11  1  0     0  0
 11 12  1  0     0  0
 12 13  1  0     0  0
 13 14  1  0     0  0
  7 14  1  0     0  0
  3 15  1  0     0  0
  3 16  1  0     0  0
 14 17  2  0     0  0
 12 18  1  6     0  0
M  END
