 
     RDKit          2D

 69 72  0  0  0  0  0  0  0  0999 V2000
   24.7586  -14.9811    0.0000 O   0  0  0  0  0  0  0  0  0  0  0  0
   23.5472  -14.2789    0.0000 C   0  0  0  0  0  0  0  0  0  0  0  0
   22.3357  -14.9811    0.0000 C   0  0  0  0  0  0  0  0  0  0  0  0
   21.1185  -14.2789    0.0000 C   0  0  0  0  0  0  0  0  0  0  0  0
   22.3357  -16.3798    0.0000 C   0  0  0  0  0  0  0  0  0  0  0  0
   19.9071  -14.9811    0.0000 C   0  0  0  0  0  0  0  0  0  0  0  0
   21.1185  -17.0821    0.0000 C   0  0  0  0  0  0  0  0  0  0  0  0
   19.9071  -16.3798    0.0000 C   0  0  0  0  0  0  0  0  0  0  0  0
   25.9887  -14.2735    0.0000 O   0  0  0  0  0  0  0  0  0  0  0  0
   27.1887  -14.9691    0.0000 C   0  0  0  0  0  0  0  0  0  0  0  0
   27.1865  -16.3797    0.0000 C   0  0  0  0  0  0  0  0  0  0  0  0
   25.9531  -17.0895    0.0000 C   0  0  0  0  0  0  0  0  0  0  0  0
   25.9512  -18.4895    0.0000 C   0  0  0  0  0  0  0  0  0  0  0  0
   27.1626  -19.1912    0.0000 C   0  0  0  0  0  0  0  0  0  0  0  0
   28.3960  -18.4814    0.0000 C   0  0  0  0  0  0  0  0  0  0  0  0
   28.3979  -17.0814    0.0000 C   0  0  0  0  0  0  0  0  0  0  0  0
   23.5472  -12.8803    0.0000 O   0  0  0  0  0  0  0  0  0  0  0  0
   28.3759  -14.2861    0.0000 O   0  0  0  0  0  0  0  0  0  0  0  0
   29.5344  -13.7288    0.0000 C   0  0  0  0  0  0  0  0  0  0  0  0
   29.5344  -12.3594    0.0000 C   0  0  0  0  0  0  0  0  0  0  0  0
   28.3449  -14.4078    0.0000 C   0  0  0  0  0  0  0  0  0  0  0  0
   31.5246  -14.4484    0.0000 O   0  0  0  0  0  0  0  0  0  0  0  0
   28.3449  -11.6747    0.0000 C   0  0  0  0  0  0  0  0  0  0  0  0
   30.5672  -11.3672    0.0000 O   0  0  0  0  0  0  0  0  0  0  0  0
   30.8225  -12.7945    0.0000 C   0  0  0  0  0  0  0  0  0  0  0  0
   28.3449  -15.7772    0.0000 C   0  0  0  0  0  0  0  0  0  0  0  0
   27.3697  -13.3814    0.0000 C   0  0  0  0  0  0  0  0  0  0  0  0
   33.1096  -13.7303    0.0000 C   0  0  0  0  0  0  0  0  0  0  0  0
   28.3449  -10.2995    0.0000 C   0  0  0  0  0  0  0  0  0  0  0  0
   29.0876  -17.1408    0.0000 O   0  0  0  0  0  0  0  0  0  0  0  0
   27.1669  -16.4620    0.0000 C   0  0  0  0  0  0  0  0  0  0  0  0
   34.2830  -14.4247    0.0000 C   0  0  0  0  0  0  0  0  0  0  0  0
   33.1216  -12.3614    0.0000 O   0  0  0  0  0  0  0  0  0  0  0  0
   27.1669   -9.6205    0.0000 C   0  0  0  0  0  0  0  0  0  0  0  0
   29.5344   -9.6205    0.0000 C   0  0  0  0  0  0  0  0  0  0  0  0
   30.6105  -17.5606    0.0000 C   0  0  0  0  0  0  0  0  0  0  0  0
   25.9774  -15.7772    0.0000 C   0  0  0  0  0  0  0  0  0  0  0  0
   27.1669  -17.8312    0.0000 C   0  0  0  0  0  0  0  0  0  0  0  0
   35.4739  -13.7601    0.0000 C   0  0  0  0  0  0  0  0  0  0  0  0
   34.2739  -15.7986    0.0000 O   0  0  0  0  0  0  0  0  0  0  0  0
   34.3175  -11.6941    0.0000 C   0  0  0  0  0  0  0  0  0  0  0  0
   25.9774  -10.2995    0.0000 C   0  0  0  0  0  0  0  0  0  0  0  0
   27.1669   -8.2511    0.0000 O   0  0  0  0  0  0  0  0  0  0  0  0
   30.6105  -18.9243    0.0000 C   0  0  0  0  0  0  0  0  0  0  0  0
   31.8001  -16.8760    0.0000 O   0  0  0  0  0  0  0  0  0  0  0  0
   25.9774  -14.4078    0.0000 O   0  0  0  0  0  0  0  0  0  0  0  0
   24.9155  -16.7288    0.0000 O   0  0  0  0  0  0  0  0  0  0  0  0
   35.4884  -12.3963    0.0000 C   0  0  0  0  0  0  0  0  0  0  0  0
   36.6522  -14.4516    0.0000 N   0  0  0  0  0  0  0  0  0  0  0  0
   34.3373  -10.3274    0.0000 C   0  0  0  0  0  0  0  0  0  0  0  0
   25.9774  -11.6747    0.0000 C   0  0  0  0  0  0  0  0  0  0  0  0
   24.7937   -9.6205    0.0000 C   0  0  0  0  0  0  0  0  0  0  0  0
   31.8001  -19.6148    0.0000 C   0  0  0  0  0  0  0  0  0  0  0  0
   32.9779  -17.5606    0.0000 C   0  0  0  0  0  0  0  0  0  0  0  0
   24.7937  -13.7288    0.0000 C   0  0  0  0  0  0  0  0  0  0  0  0
   24.7937  -12.3594    0.0000 C   0  0  0  0  0  0  0  0  0  0  0  0
   27.1669  -12.3594    0.0000 O   0  0  0  0  0  0  0  0  0  0  0  0
   32.9779  -18.9243    0.0000 C   0  0  0  0  0  0  0  0  0  0  0  0
   31.8001  -20.9437    0.0000 O   0  0  0  0  0  0  0  0  0  0  0  0
   33.2507  -20.6013    0.0000 C   0  0  0  0  0  0  0  0  0  0  0  0
   34.1675  -16.8818    0.0000 C   0  0  0  0  0  0  0  0  0  0  0  0
   23.6099  -14.4078    0.0000 C   0  0  0  0  0  0  0  0  0  0  0  0
   23.5404  -12.9279    0.0000 C   0  0  0  0  0  0  0  0  0  0  0  0
   23.5404  -11.6690    0.0000 O   0  0  0  0  0  0  0  0  0  0  0  0
   34.1675  -19.6148    0.0000 O   0  0  0  0  0  0  0  0  0  0  0  0
   32.9026  -21.9069    0.0000 C   0  0  0  0  0  0  0  0  0  0  0  0
   23.5747  -15.5334    0.0000 C   0  0  0  0  0  0  0  0  0  0  0  0
   37.9042  -13.7409    0.0000 C   0  0  0  0  0  0  0  0  0  0  0  0
   36.7130  -15.8195    0.0000 C   0  0  0  0  0  0  0  0  0  0  0  0
  1  2  1  0
  2  3  1  0
  3  4  2  0
  3  5  1  0
  4  6  1  0
  5  7  2  0
  6  8  2  0
  7  8  1  0
  1  9  1  0
  9 10  1  0
 10 11  1  0
 11 12  2  0
 12 13  1  0
 13 14  2  0
 14 15  1  0
 15 16  2  0
 11 16  1  0
  2 17  2  0
 10 18  2  0
 19 20  1  0
 19 21  1  0
 19 22  1  6
 20 23  1  0
 20 24  1  0
 20 25  1  6
 21 26  1  0
 21 27  1  6
 28 22  1  6
 23 29  1  0
 26 30  1  6
 26 31  1  0
 28 32  1  0
 28 33  1  0
 29 34  1  0
 29 35  1  6
 36 30  1  6
 31 37  1  0
 31 38  1  1
 32 39  1  0
 32 40  1  1
 33 41  1  0
 34 42  1  0
 34 43  2  0
 36 44  1  0
 36 45  1  0
 37 46  1  0
 37 47  2  0
 39 48  1  0
 39 49  1  6
 41 50  1  6
 42 51  1  0
 42 52  1  1
 44 53  1  0
 45 54  1  0
 46 55  1  0
 51 56  1  0
 51 57  1  1
 53 58  1  0
 53 59  1  0
 53 60  1  1
 54 61  1  1
 55 62  1  6
 56 63  1  6
 56 64  1  0
 58 65  1  6
 59 66  1  0
 62 67  1  0
 41 48  1  0
 54 58  1  0
 55 56  1  0
 49 68  1  0
 49 69  1  0
M  END
