121488171
     RDKit          2D

 39 38  0  0  1  0  0  0  0  0999 V2000
    2.5369  -10.9400    0.0000 O   0  0  0  0  0  0  0  0  0  0  0  0
   16.3933   10.0600    0.0000 O   0  0  0  0  0  0  0  0  0  0  0  0
    9.4651    0.0600    0.0000 O   0  0  0  0  0  0  0  0  0  0  0  0
    4.2690  -10.9400    0.0000 O   0  0  0  0  0  0  0  0  0  0  0  0
   15.5273   11.5600    0.0000 O   0  0  0  0  0  0  0  0  0  0  0  0
    5.1350   -4.4400    0.0000 O   0  0  0  0  0  0  0  0  0  0  0  0
   11.1972    6.0600    0.0000 O   0  0  0  0  0  0  0  0  0  0  0  0
    8.5991   -3.4400    0.0000 O   0  0  0  0  0  0  0  0  0  0  0  0
   12.0632    2.5600    0.0000 O   0  0  0  0  0  0  0  0  0  0  0  0
    6.0010   -5.9400    0.0000 N   0  0  0  0  0  0  0  0  0  0  0  0
   12.9292    6.0600    0.0000 N   0  0  0  0  0  0  0  0  0  0  0  0
    2.5369   -8.9400    0.0000 N   0  0  0  0  0  0  0  0  0  0  0  0
   13.7953   10.5600    0.0000 N   0  0  0  0  0  0  0  0  0  0  0  0
    7.7331   -1.9400    0.0000 N   0  0  0  0  0  0  0  0  0  0  0  0
   10.3312    2.5600    0.0000 N   0  0  0  0  0  0  0  0  0  0  0  0
    4.2690   -7.9400    0.0000 C   0  0  0  0  0  0  0  0  0  0  0  0
   13.7953    8.5600    0.0000 C   0  0  0  0  0  0  0  0  0  0  0  0
    4.2690   -8.9400    0.0000 C   0  0  0  0  0  0  0  0  0  0  0  0
   14.6613    9.0600    0.0000 C   0  0  0  0  0  0  0  0  0  0  0  0
    5.1350   -7.4400    0.0000 C   0  0  0  0  0  0  0  0  0  0  0  0
   13.7953    7.5600    0.0000 C   0  0  0  0  0  0  0  0  0  0  0  0
    3.4030   -9.4400    0.0000 C   0  0  0  0  0  0  0  0  0  0  0  0
   14.6613   10.0600    0.0000 C   0  0  0  0  0  0  0  0  0  0  0  0
    5.1350   -6.4400    0.0000 C   0  0  0  0  0  0  0  0  0  0  0  0
   12.9292    7.0600    0.0000 C   0  0  0  0  0  0  0  0  0  0  0  0
    3.4030  -10.4400    0.0000 C   0  0  0  0  0  0  0  0  0  0  0  0
   15.5273   10.5600    0.0000 C   0  0  0  0  0  0  0  0  0  0  0  0
    6.0010   -4.9400    0.0000 C   0  0  0  0  0  0  0  0  0  0  0  0
    6.8671   -4.4400    0.0000 C   0  0  0  0  0  0  0  0  0  0  0  0
   12.0632    5.5600    0.0000 C   0  0  0  0  0  0  0  0  0  0  0  0
   12.0632    4.5600    0.0000 C   0  0  0  0  0  0  0  0  0  0  0  0
    6.8671   -3.4400    0.0000 C   0  0  0  0  0  0  0  0  0  0  0  0
   11.1972    4.0600    0.0000 C   0  0  0  0  0  0  0  0  0  0  0  0
    7.7331   -2.9400    0.0000 C   0  0  0  0  0  0  0  0  0  0  0  0
   11.1972    3.0600    0.0000 C   0  0  0  0  0  0  0  0  0  0  0  0
    8.5991   -1.4400    0.0000 C   0  0  0  0  0  0  0  0  0  0  0  0
   10.3312    1.5600    0.0000 C   0  0  0  0  0  0  0  0  0  0  0  0
    8.5991   -0.4400    0.0000 C   0  0  0  0  0  0  0  0  0  0  0  0
    9.4651    1.0600    0.0000 C   0  0  0  0  0  0  0  0  0  0  0  0
  1 26  1  0
  2 27  1  0
  3 38  1  0
  3 39  1  0
  4 26  2  0
  5 27  2  0
  6 28  2  0
  7 30  2  0
  8 34  2  0
  9 35  2  0
 10 24  1  0
 10 28  1  0
 11 25  1  0
 11 30  1  0
 22 12  1  1
 23 13  1  6
 14 34  1  0
 14 36  1  0
 15 35  1  0
 15 37  1  0
 16 18  1  0
 16 20  1  0
 17 19  1  0
 17 21  1  0
 18 22  1  0
 19 23  1  0
 20 24  1  0
 21 25  1  0
 22 26  1  0
 23 27  1  0
 28 29  1  0
 29 32  1  0
 30 31  1  0
 31 33  1  0
 32 34  1  0
 33 35  1  0
 36 38  1  0
 37 39  1  0
M  END
