 
     RDKit          2D

 50 50  0  0  0  0  0  0  0  0999 V2000
   29.6264  -16.7756    0.0000 C   0  0  0  0  0  0  0  0  0  0  0  0
   29.6264  -15.3737    0.0000 C   0  0  0  0  0  0  0  0  0  0  0  0
   30.8434  -14.6727    0.0000 C   0  0  0  0  0  0  0  0  0  0  0  0
   32.0533  -15.3737    0.0000 C   0  0  0  0  0  0  0  0  0  0  0  0
   32.0533  -16.7756    0.0000 C   0  0  0  0  0  0  0  0  0  0  0  0
   30.8434  -17.4765    0.0000 C   0  0  0  0  0  0  0  0  0  0  0  0
   33.2586  -17.4765    0.0000 C   0  0  0  0  0  0  0  0  0  0  0  0
   34.4693  -16.7756    0.0000 O   0  0  0  0  0  0  0  0  0  0  0  0
   35.6801  -17.4765    0.0000 C   0  0  0  0  0  0  0  0  0  0  0  0
   36.8908  -16.7756    0.0000 C   0  0  0  0  0  0  0  0  0  0  0  0
   38.1015  -17.4765    0.0000 N   0  0  0  0  0  0  0  0  0  0  0  0
   39.3123  -16.7756    0.0000 C   0  0  0  0  0  0  0  0  0  0  0  0
   40.5230  -17.4765    0.0000 C   0  0  0  0  0  0  0  0  0  0  0  0
   33.2572  -18.8784    0.0000 O   0  0  0  0  0  0  0  0  0  0  0  0
   38.1015  -18.8784    0.0000 C   0  0  0  0  0  0  0  0  0  0  0  0
   39.3157  -19.5794    0.0000 C   0  0  0  0  0  0  0  0  0  0  0  0
   28.4126  -14.6720    0.0000 N   0  0  0  0  0  0  0  0  0  0  0  0
   28.4126  -17.4770    0.0000 O   0  0  0  0  0  0  0  0  0  0  0  0
   27.1978  -16.7825    0.0000 C   0  0  0  0  0  0  0  0  0  0  0  0
   25.9870  -17.4835    0.0000 C   0  0  0  0  0  0  0  0  0  0  0  0
   24.7763  -16.7897    0.0000 C   0  0  0  0  0  0  0  0  0  0  0  0
   23.5656  -17.4906    0.0000 C   0  0  0  0  0  0  0  0  0  0  0  0
   40.0158  -14.7191    0.0000 Cl  0  0  0  0  0  0  0  0  0  0  0  0
   21.0913  -14.6516    0.0000 C   0  0  0  0  0  0  0  0  0  0  0  0
   21.0913  -16.0515    0.0000 C   0  0  0  0  0  0  0  0  0  0  0  0
   22.3037  -16.7514    0.0000 C   0  0  0  0  0  0  0  0  0  0  0  0
   23.5159  -16.0515    0.0000 C   0  0  0  0  0  0  0  0  0  0  0  0
   23.5159  -14.6516    0.0000 C   0  0  0  0  0  0  0  0  0  0  0  0
   22.3037  -13.9517    0.0000 O   0  0  0  0  0  0  0  0  0  0  0  0
   24.7282  -16.7514    0.0000 C   0  0  0  0  0  0  0  0  0  0  0  0
   25.9405  -16.0515    0.0000 C   0  0  0  0  0  0  0  0  0  0  0  0
   25.9405  -14.6516    0.0000 C   0  0  0  0  0  0  0  0  0  0  0  0
   24.7282  -13.9517    0.0000 C   0  0  0  0  0  0  0  0  0  0  0  0
   19.8791  -13.9517    0.0000 C   0  0  0  0  0  0  0  0  0  0  0  0
   18.6668  -14.6516    0.0000 C   0  0  0  0  0  0  0  0  0  0  0  0
   18.6668  -16.0515    0.0000 C   0  0  0  0  0  0  0  0  0  0  0  0
   19.8791  -16.7514    0.0000 C   0  0  0  0  0  0  0  0  0  0  0  0
   27.1555  -13.9502    0.0000 O   0  0  0  0  0  0  0  0  0  0  0  0
   17.4532  -13.9510    0.0000 O   0  0  0  0  0  0  0  0  0  0  0  0
   22.3037  -18.1512    0.0000 C   0  0  0  0  0  0  0  0  0  0  0  0
   21.0920  -18.8507    0.0000 C   0  0  0  0  0  0  0  0  0  0  0  0
   21.0920  -20.2505    0.0000 C   0  0  0  0  0  0  0  0  0  0  0  0
   22.3043  -20.9505    0.0000 C   0  0  0  0  0  0  0  0  0  0  0  0
   23.5159  -20.2509    0.0000 C   0  0  0  0  0  0  0  0  0  0  0  0
   23.5159  -18.8511    0.0000 C   0  0  0  0  0  0  0  0  0  0  0  0
   24.9176  -18.8511    0.0000 C   0  0  0  0  0  0  0  0  0  0  0  0
   25.6175  -17.6389    0.0000 O   0  0  0  0  0  0  0  0  0  0  0  0
   25.6175  -20.0635    0.0000 O   0  0  0  0  0  0  0  0  0  0  0  0
   15.3520  -13.8117    0.0000 Na  0  0  0  0  0 15  0  0  0  0  0  0
   27.1573  -20.0644    0.0000 Na  0  0  0  0  0 15  0  0  0  0  0  0
 10 11  1  0
  4  5  2  0
 11 12  1  0
  5  6  1  0
 12 13  1  0
  6  1  2  0
  7 14  2  0
 11 15  1  0
  5  7  1  0
 15 16  1  0
  2 17  1  0
  7  8  1  0
  1 18  1  0
  1  2  1  0
 18 19  1  0
  8  9  1  0
 19 20  1  0
  2  3  2  0
 20 21  1  0
  9 10  1  0
 21 22  1  0
  3  4  1  0
 24 25  2  0
 25 26  1  0
 26 27  2  0
 27 28  1  0
 28 29  1  0
 24 29  1  0
 27 30  1  0
 30 31  2  0
 31 32  1  0
 32 33  1  0
 28 33  2  0
 24 34  1  0
 34 35  2  0
 35 36  1  0
 36 37  2  0
 25 37  1  0
 32 38  2  0
 35 39  1  0
 26 40  1  0
 40 41  2  0
 41 42  1  0
 42 43  2  0
 43 44  1  0
 44 45  2  0
 40 45  1  0
 45 46  1  0
 46 47  2  0
 46 48  1  0
M  CHG  4  39  -1  48  -1  49   1  50   1
M  END
