 
 
 
 24 23  0  0  1  0  0  0  0  0999 V2000
   18.3486  -15.6221    0.0000 O   0  0  0  0  0  0  0  0  0  0  0  0
   19.5395  -16.3227    0.0000 C   0  0  0  0  0  0  0  0  0  0  0  0
   20.8005  -15.6221    0.0000 C   0  0  0  0  0  0  0  0  0  0  0  0
   21.9914  -16.3227    0.0000 C   0  0  0  0  0  0  0  0  0  0  0  0
   23.1823  -15.6221    0.0000 C   0  0  0  0  0  0  0  0  0  0  0  0
   24.4433  -16.3227    0.0000 C   0  0  0  0  0  0  0  0  0  0  0  0
   25.6342  -15.6221    0.0000 C   0  0  0  0  0  0  0  0  0  0  0  0
   26.8251  -16.3227    0.0000 O   0  0  0  0  0  0  0  0  0  0  0  0
   19.5395  -17.7238    0.0000 O   0  0  0  0  0  0  0  0  0  0  0  0
   20.8005  -14.2211    0.0000 O   0  0  0  0  0  0  0  0  0  0  0  0
   21.9914  -17.7238    0.0000 O   0  0  0  0  0  0  0  0  0  0  0  0
   23.1823  -14.2211    0.0000 O   0  0  0  0  0  0  0  0  0  0  0  0
   24.4433  -17.7238    0.0000 O   0  0  0  0  0  0  0  0  0  0  0  0
   25.6342  -14.2211    0.0000 O   0  0  0  0  0  0  0  0  0  0  0  0
   11.0082  -15.9755    0.0000 C   0  0  0  0  0  0  0  0  0  0  0  0
    9.7469  -15.2748    0.0000 C   0  0  0  0  0  0  0  0  0  0  0  0
   11.0082  -17.3770    0.0000 C   0  0  0  0  0  0  0  0  0  0  0  0
   12.1994  -15.2748    0.0000 C   0  0  0  0  0  0  0  0  0  0  0  0
    8.5557  -15.9755    0.0000 C   0  0  0  0  0  0  0  0  0  0  0  0
    9.7469  -18.0777    0.0000 C   0  0  0  0  0  0  0  0  0  0  0  0
   13.3906  -15.9755    0.0000 C   0  0  2  0  0  0  0  0  0  0  0  0
    8.5557  -17.3770    0.0000 C   0  0  0  0  0  0  0  0  0  0  0  0
   14.5818  -15.2748    0.0000 N   0  0  0  0  0  0  0  0  0  0  0  0
   13.3906  -17.3770    0.0000 C   0  0  0  0  0  0  0  0  0  0  0  0
  1  2  1  0     0  0
  2  3  1  0     0  0
  3  4  1  0     0  0
  4  5  1  0     0  0
  5  6  1  0     0  0
  6  7  1  0     0  0
  7  8  1  0     0  0
  2  9  2  0     0  0
  3 10  1  1     0  0
  4 11  1  6     0  0
  5 12  1  6     0  0
  6 13  1  6     0  0
  7 14  2  0     0  0
 15 16  2  0     0  0
 15 17  1  0     0  0
 15 18  1  0     0  0
 16 19  1  0     0  0
 17 20  2  0     0  0
 18 21  1  0     0  0
 19 22  2  0     0  0
 21 23  1  0     0  0
 21 24  1  1     0  0
 20 22  1  0     0  0
M  STY  1   1 SRU
M  SLB  1   1   1
M  SCN  1   1 HT 
M  SAL   1 14   1   2   3   4   5   6   7   8   9  10  11  12  13  14
M  SDI   1  4   17.0800  -18.6900   17.0800  -13.3000
M  SDI   1  4   28.0000  -13.3000   28.0000  -18.6900
M  SMT   1 x
M  END
