 
     RDKit          2D

 70 70  0  0  1  0  0  0  0  0999 V2000
    5.3167  -12.6756    0.0000 C   0  0  0  0  0  0  0  0  0  0  0  0
    5.3167  -14.0336    0.0000 C   0  0  0  0  0  0  0  0  0  0  0  0
    6.6068  -14.0336    0.0000 N   0  0  0  0  0  0  0  0  0  0  0  0
    6.6068  -12.6756    0.0000 C   0  0  0  0  0  0  0  0  0  0  0  0
    7.8969  -14.4410    0.0000 C   0  0  0  0  0  0  0  0  0  0  0  0
    8.7118  -13.3546    0.0000 C   0  0  0  0  0  0  0  0  0  0  0  0
    7.8969  -12.2682    0.0000 C   0  0  0  0  0  0  0  0  0  0  0  0
    8.3044  -15.7311    0.0000 C   0  0  0  0  0  0  0  0  0  0  0  0
    9.6624  -15.7311    0.0000 O   0  0  0  0  0  0  0  0  0  0  0  0
    7.5574  -16.8176    0.0000 O   0  0  0  0  0  0  0  0  0  0  0  0
    4.1054  -11.9762    0.0000 C   0  0  0  0  0  0  0  0  0  0  0  0
    2.8940  -12.6756    0.0000 C   0  0  0  0  0  0  0  0  0  0  0  0
    4.1054  -14.7330    0.0000 O   0  0  0  0  0  0  0  0  0  0  0  0
    4.1057  -10.5620    0.0000 O   0  0  0  0  0  0  0  0  0  0  0  0
   10.0799  -13.3549    0.0000 S   0  0  0  0  0  0  0  0  0  0  0  0
   10.7737  -12.1540    0.0000 C   0  0  0  0  0  0  0  0  0  0  0  0
   12.1798  -12.1542    0.0000 C   0  0  0  0  0  0  0  0  0  0  0  0
   12.8690  -10.9613    0.0000 N   0  0  0  0  0  0  0  0  0  0  0  0
   14.2797  -10.9615    0.0000 C   0  0  0  0  0  0  0  0  0  0  0  0
   14.9679   -9.7706    0.0000 N   0  0  0  0  0  0  0  0  0  0  0  0
   14.7000  -14.2800    0.0000 O   0  0  0  0  0  0  0  0  0  0  0  0
   23.6195  -15.5928    0.0000 C   0  0  0  0  0  0  0  0  0  0  0  0
   25.1095  -15.5928    0.0000 C   0  0  0  0  0  0  0  0  0  0  0  0
   24.3645  -14.3355    0.0000 C   0  0  0  0  0  0  0  0  0  0  0  0
   22.9210  -16.8501    0.0000 C   0  0  0  0  0  0  0  0  0  0  0  0
   22.1760  -15.5928    0.0000 C   0  0  0  0  0  0  0  0  0  0  0  0
   22.9210  -18.2004    0.0000 C   0  0  0  0  0  0  0  0  0  0  0  0
   21.7104  -18.8989    0.0000 N   0  0  0  0  0  0  0  0  0  0  0  0
   24.1317  -18.8989    0.0000 O   0  0  0  0  0  0  0  0  0  0  0  0
   21.7104  -20.2958    0.0000 C   0  0  0  0  0  0  0  0  0  0  0  0
   22.9210  -20.9942    0.0000 C   0  0  0  0  0  0  0  0  0  0  0  0
   20.5928  -20.9942    0.0000 C   0  0  0  0  0  0  0  0  0  0  0  0
   24.1317  -20.2958    0.0000 C   0  0  0  0  0  0  0  0  0  0  0  0
   19.3822  -20.2958    0.0000 O   0  0  0  0  0  0  0  0  0  0  0  0
   20.5928  -22.3912    0.0000 O   0  0  0  0  0  0  0  0  0  0  0  0
   25.3424  -20.9942    0.0000 C   0  0  0  0  0  0  0  0  0  0  0  0
   26.5065  -20.2958    0.0000 C   0  0  0  0  0  0  0  0  0  0  0  0
   27.7171  -20.9942    0.0000 C   0  0  0  0  0  0  0  0  0  0  0  0
   28.9278  -20.2958    0.0000 S   0  0  0  0  0  0  0  0  0  0  0  0
   30.0919  -20.9942    0.0000 C   0  0  0  0  0  0  0  0  0  0  0  0
   31.3025  -20.2958    0.0000 C   0  0  0  0  0  0  0  0  0  0  0  0
   32.4667  -20.9942    0.0000 C   0  0  0  0  0  0  0  0  0  0  0  0
   31.3025  -18.8989    0.0000 N   0  0  0  0  0  0  0  0  0  0  0  0
   32.4667  -22.3912    0.0000 O   0  0  0  0  0  0  0  0  0  0  0  0
   33.6774  -20.2958    0.0000 O   0  0  0  0  0  0  0  0  0  0  0  0
   19.0401  -18.2934    0.0000 Na  0  0  0  0  0 15  0  0  0  0  0  0
   29.7500  -27.5100    0.0000 N   0  0  0  0  0  0  0  0  0  0  0  0
   31.1500  -25.9700    0.0000 C   0  0  0  0  0  0  0  0  0  0  0  0
   30.6600  -28.4900    0.0000 N   0  0  0  0  0  0  0  0  0  0  0  0
   31.5000  -27.3000    0.0000 C   0  0  0  0  0  0  0  0  0  0  0  0
   29.3300  -28.7700    0.0000 C   0  0  0  0  0  0  0  0  0  0  0  0
   32.4100  -27.5800    0.0000 C   0  0  0  0  0  0  0  0  0  0  0  0
   31.7100  -28.4900    0.0000 C   0  0  0  0  0  0  0  0  0  0  0  0
   33.4600  -29.6100    0.0000 C   0  0  0  0  0  0  0  0  0  0  0  0
   28.2100  -29.6100    0.0000 O   0  0  0  0  0  0  0  0  0  0  0  0
   31.2200  -30.1000    0.0000 C   0  0  0  0  0  0  0  0  0  0  0  0
   29.8900  -30.4500    0.0000 O   0  0  0  0  0  0  0  0  0  0  0  0
   32.2000  -31.0800    0.0000 N   0  0  0  0  0  0  0  0  0  0  0  0
   28.9100  -26.3900    0.0000 O   0  0  0  0  0  0  0  0  0  0  0  0
   28.9100  -24.9900    0.0000 S   0  0  0  0  0  0  0  0  0  0  0  0
   27.5100  -24.9900    0.0000 O   0  0  0  0  0  0  0  0  0  0  0  0
   30.3100  -24.9900    0.0000 O   0  0  0  0  0  0  0  0  0  0  0  0
   28.9100  -23.5900    0.0000 O   0  0  0  0  0  0  0  0  0  0  0  0
   33.7623  -31.0677    0.0000 C   0  0  0  0  0  0  0  0  0  0  0  0
   34.4714  -32.2738    0.0000 C   0  0  0  0  0  0  0  0  0  0  0  0
   35.8713  -32.2627    0.0000 C   0  0  0  0  0  0  0  0  0  0  0  0
   36.5618  -31.0448    0.0000 N   0  0  0  0  0  0  0  0  0  0  0  0
   35.8527  -29.8387    0.0000 C   0  0  0  0  0  0  0  0  0  0  0  0
   34.4527  -29.8497    0.0000 C   0  0  0  0  0  0  0  0  0  0  0  0
   35.7700  -25.9700    0.0000 O   0  0  0  0  0  0  0  0  0  0  0  0
  1  2  1  6
  2  3  1  0
  3  4  1  0
  1  4  1  0
  3  5  1  0
  5  6  2  0
  6  7  1  0
  4  7  1  1
  5  8  1  0
  8  9  1  0
  8 10  2  0
  1 11  1  0
 11 12  1  1
  2 13  2  0
 11 14  1  0
  6 15  1  0
 15 16  1  0
 16 17  1  0
 17 18  1  0
 18 19  1  0
 19 20  2  0
 26 22  1  0
 22 23  1  0
 22 24  1  0
 25 22  1  0
 25 27  1  1
 27 28  1  0
 27 29  2  0
 28 30  1  0
 30 31  2  0
 30 32  1  0
 31 33  1  0
 32 34  1  0
 32 35  2  0
 33 36  1  0
 36 37  1  0
 37 38  1  0
 38 39  1  0
 39 40  1  0
 40 41  1  0
 41 42  1  0
 41 43  1  6
 42 44  1  0
 42 45  2  0
 25 26  1  0
 48 49  1  0
 48 50  1  0
 47 50  1  0
 47 51  1  0
 51 49  1  0
 50 52  1  0
 49 53  1  0
 53 54  1  0
 52 54  1  0
 51 55  2  0
 53 56  1  1
 56 57  2  0
 56 58  1  0
 47 59  1  0
 59 60  1  0
 60 61  2  0
 60 62  2  0
 60 63  1  0
 58 64  1  0
 64 65  1  0
 65 66  1  0
 66 67  1  0
 67 68  1  0
 68 69  1  0
 64 69  1  0
M  CHG  2  34  -1  46   1
M  END
