 
     RDKit          2D

 68 69  0  0  1  0  0  0  0  0999 V2000
    8.1200  -20.5100    0.0000 C   0  0  0  0  0  0  0  0  0  0  0  0
    8.1200  -21.9100    0.0000 C   0  0  0  0  0  0  0  0  0  0  0  0
    9.3100  -22.6100    0.0000 C   0  0  0  0  0  0  0  0  0  0  0  0
   10.5700  -21.9100    0.0000 C   0  0  0  0  0  0  0  0  0  0  0  0
   10.5700  -20.5100    0.0000 C   0  0  0  0  0  0  0  0  0  0  0  0
    9.3100  -19.8100    0.0000 C   0  0  0  0  0  0  0  0  0  0  0  0
   11.7600  -19.8100    0.0000 C   0  0  0  0  0  0  0  0  0  0  0  0
   13.0200  -20.5100    0.0000 C   0  0  0  0  0  0  0  0  0  0  0  0
   13.0200  -21.9100    0.0000 C   0  0  0  0  0  0  0  0  0  0  0  0
   14.2100  -22.6100    0.0000 C   0  0  0  0  0  0  0  0  0  0  0  0
   15.4000  -21.9100    0.0000 C   0  0  0  0  0  0  0  0  0  0  0  0
   15.4000  -20.5100    0.0000 C   0  0  0  0  0  0  0  0  0  0  0  0
   14.2100  -19.8100    0.0000 C   0  0  0  0  0  0  0  0  0  0  0  0
   11.7600  -22.6100    0.0000 Cl  0  0  0  0  0  0  0  0  0  0  0  0
   16.5900  -22.6100    0.0000 O   0  0  0  0  0  0  0  0  0  0  0  0
   17.7800  -21.9100    0.0000 C   0  0  0  0  0  0  0  0  0  0  0  0
   18.9700  -22.6100    0.0000 C   0  0  0  0  0  0  0  0  0  0  0  0
    6.9300  -19.8100    0.0000 C   0  0  0  0  0  0  0  0  0  0  0  0
    6.9300  -18.4100    0.0000 O   0  0  0  0  0  0  0  0  0  0  0  0
    5.6700  -17.7100    0.0000 C   0  0  0  0  0  0  0  0  0  0  0  0
    4.4800  -18.4100    0.0000 C   0  0  0  0  0  0  0  0  0  0  0  0
    4.4800  -19.8100    0.0000 C   0  0  0  0  0  0  0  0  0  0  0  0
    5.6700  -20.5100    0.0000 C   0  0  0  0  0  0  0  0  0  0  0  0
    5.6700  -21.9100    0.0000 O   0  0  0  0  0  0  0  0  0  0  0  0
    3.2900  -17.7100    0.0000 O   0  0  0  0  0  0  0  0  0  0  0  0
    3.2900  -20.5100    0.0000 O   0  0  0  0  0  0  0  0  0  0  0  0
    5.6700  -16.3100    0.0000 C   0  0  0  0  0  0  0  0  0  0  0  0
    6.9300  -15.6100    0.0000 O   0  0  0  0  0  0  0  0  0  0  0  0
   15.9600  -15.8200    0.0000 C   0  0  0  0  0  0  0  0  0  0  0  0
   17.1724  -16.5200    0.0000 C   0  0  0  0  0  0  0  0  0  0  0  0
   18.3679  -15.8296    0.0000 C   0  0  0  0  0  0  0  0  0  0  0  0
   17.1725  -17.9198    0.0000 O   0  0  0  0  0  0  0  0  0  0  0  0
   19.5553  -16.5151    0.0000 O   0  0  0  0  0  0  0  0  0  0  0  0
   20.7200  -20.0200    0.0000 O   0  0  0  0  0  0  0  0  0  0  0  0
   25.2991  -19.3605    0.0000 C   0  0  0  0  0  0  0  0  0  0  0  0
   24.0935  -18.6673    0.0000 N   0  0  0  0  0  0  0  0  0  0  0  0
   26.5163  -18.6673    0.0000 N   0  0  0  0  0  0  0  0  0  0  0  0
   25.2991  -20.7640    0.0000 N   0  0  0  0  0  0  0  0  0  0  0  0
   22.8764  -19.3605    0.0000 C   0  0  0  0  0  0  0  0  0  0  0  0
   27.7278  -19.3605    0.0000 C   0  0  0  0  0  0  0  0  0  0  0  0
   26.5163  -17.2579    0.0000 C   0  0  0  0  0  0  0  0  0  0  0  0
   21.6649  -18.6673    0.0000 N   0  0  0  0  0  0  0  0  0  0  0  0
   22.8764  -20.7640    0.0000 N   0  0  0  0  0  0  0  0  0  0  0  0
   31.1135  -18.2132    0.0000 Cl  0  0  0  0  0  0  0  0  0  0  0  0
   23.3800  -20.7900    0.0000 C   0  0  0  0  0  0  0  0  0  0  0  0
   22.6800  -22.1900    0.0000 C   0  0  0  0  0  0  0  0  0  0  0  0
   22.6800  -23.4500    0.0000 C   0  0  0  0  0  0  0  0  0  0  0  0
   22.1900  -22.7500    0.0000 C   0  0  0  0  0  0  0  0  0  0  0  0
   24.5000  -22.7500    0.0000 C   0  0  0  0  0  0  0  0  0  0  0  0
   21.1400  -23.8700    0.0000 C   0  0  0  0  0  0  0  0  0  0  0  0
   23.8000  -24.4300    0.0000 C   0  0  0  0  0  0  0  0  0  0  0  0
   22.1900  -21.4200    0.0000 C   0  0  0  0  0  0  0  0  0  0  0  0
   23.3800  -23.3800    0.0000 C   0  0  0  0  0  0  0  0  0  0  0  0
   24.5000  -21.4200    0.0000 C   0  0  0  0  0  0  0  0  0  0  0  0
   23.3800  -19.3900    0.0000 C   0  0  0  0  0  0  0  0  0  0  0  0
   24.5700  -18.7600    0.0000 C   0  0  0  0  0  0  0  0  0  0  0  0
   22.1900  -18.7600    0.0000 N   0  0  0  0  0  0  0  0  0  0  0  0
   25.7600  -19.3900    0.0000 N   0  0  0  0  0  0  0  0  0  0  0  0
   24.5700  -17.3600    0.0000 O   0  0  0  0  0  0  0  0  0  0  0  0
   26.1800  -20.7200    0.0000 C   0  0  0  0  0  0  0  0  0  0  0  0
   27.5800  -20.7200    0.0000 C   0  0  0  0  0  0  0  0  0  0  0  0
   28.0000  -19.3200    0.0000 C   0  0  0  0  0  0  0  0  0  0  0  0
   26.8100  -18.6200    0.0000 C   0  0  0  0  0  0  0  0  0  0  0  0
   26.8100  -17.2200    0.0000 C   0  0  0  0  0  0  0  0  0  0  0  0
   26.8100  -15.8200    0.0000 N   0  0  0  0  0  0  0  0  0  0  0  0
   25.8300  -22.7500    0.0000 O   0  0  0  0  0  0  0  0  0  0  0  0
   26.8800  -21.9100    0.0000 C   0  0  0  0  0  0  0  0  0  0  0  0
   29.1200  -24.3600    0.0000 O   0  0  0  0  0  0  0  0  0  0  0  0
  1  2  2  0
  2  3  1  0
  3  4  2  0
  4  5  1  0
  5  6  2  0
  1  6  1  0
  5  7  1  0
  7  8  1  0
  8  9  2  0
  9 10  1  0
 10 11  2  0
 11 12  1  0
 12 13  2  0
  8 13  1  0
  4 14  1  0
 11 15  1  0
 15 16  1  0
 16 17  1  0
 18  1  1  1
 18 19  1  0
 19 20  1  0
 20 21  1  0
 21 22  1  0
 22 23  1  0
 18 23  1  0
 23 24  1  6
 21 25  1  6
 22 26  1  1
 20 27  1  1
 27 28  1  0
 29 30  1  0
 30 31  1  0
 30 32  1  0
 31 33  1  0
 35 36  1  0
 35 37  1  0
 35 38  2  0
 36 39  1  0
 37 40  1  0
 37 41  1  0
 39 42  1  0
 39 43  2  0
 45 46  1  0
 46 47  1  0
 52 48  1  0
 48 53  1  0
 53 49  1  0
 49 54  1  0
 54 45  1  0
 45 52  1  0
 47 50  1  0
 47 51  1  0
 48 50  1  0
 49 51  1  0
 45 55  1  0
 55 56  1  0
 55 57  1  6
 56 58  1  0
 56 59  2  0
 58 60  1  0
 60 61  1  0
 61 62  1  6
 62 63  1  0
 58 63  1  0
 63 64  1  6
 64 65  3  0
 49 66  1  0
 61 67  1  0
 60 67  1  6
M  END
