 
     RDKit          2D

128132  0  0  0  0  0  0  0  0999 V2000
   22.9600  -16.8000    0.0000 C   0  0  0  0  0  0  0  0  0  0  0  0
   24.1500  -16.1000    0.0000 C   0  0  0  0  0  0  0  0  0  0  0  0
   21.7700  -16.1000    0.0000 C   0  0  0  0  0  0  0  0  0  0  0  0
   22.9600  -19.1800    0.0000 C   0  0  0  0  0  0  0  0  0  0  0  0
   24.1500  -14.7000    0.0000 C   0  0  0  0  0  0  0  0  0  0  0  0
   25.3400  -16.8000    0.0000 C   0  0  0  0  0  0  0  0  0  0  0  0
   21.7700  -14.7000    0.0000 C   0  0  0  0  0  0  0  0  0  0  0  0
   20.5800  -16.7300    0.0000 C   0  0  0  0  0  0  0  0  0  0  0  0
   24.1500  -19.8800    0.0000 C   0  0  0  0  0  0  0  0  0  0  0  0
   21.7700  -19.8800    0.0000 C   0  0  0  0  0  0  0  0  0  0  0  0
   22.9600  -14.0000    0.0000 N   0  0  0  0  0  0  0  0  0  0  0  0
   25.3400  -14.0000    0.0000 C   0  0  0  0  0  0  0  0  0  0  0  0
   26.5300  -16.1000    0.0000 O   0  0  0  0  0  0  0  0  0  0  0  0
   25.3400  -18.1300    0.0000 O   0  0  0  0  0  0  0  0  0  0  0  0
   20.5800  -14.0000    0.0000 C   0  0  0  0  0  0  0  0  0  0  0  0
   19.3900  -16.1000    0.0000 O   0  0  0  0  0  0  0  0  0  0  0  0
   20.5800  -18.1300    0.0000 O   0  0  0  0  0  0  0  0  0  0  0  0
   24.1500  -21.2100    0.0000 C   0  0  0  0  0  0  0  0  0  0  0  0
   25.3400  -19.1800    0.0000 Cl  0  0  0  0  0  0  0  0  0  0  0  0
   21.7700  -21.2100    0.0000 C   0  0  0  0  0  0  0  0  0  0  0  0
   26.5300  -14.7000    0.0000 O   0  0  0  0  0  0  0  0  0  0  0  0
   27.7200  -16.8000    0.0000 C   0  0  0  0  0  0  0  0  0  0  0  0
   18.2000  -16.7300    0.0000 C   0  0  0  0  0  0  0  0  0  0  0  0
   22.9600  -21.9100    0.0000 C   0  0  0  0  0  0  0  0  0  0  0  0
   27.7200  -14.0000    0.0000 C   0  0  0  0  0  0  0  0  0  0  0  0
   28.9100  -16.1000    0.0000 C   0  0  0  0  0  0  0  0  0  0  0  0
   28.9100  -14.7000    0.0000 C   0  0  0  0  0  0  0  0  0  0  0  0
   30.1000  -14.0000    0.0000 N   0  0  0  0  0  0  0  0  0  0  0  0
   29.5695  -18.6304    0.0000 C   0  0  0  0  0  0  0  0  0  0  0  0
   28.3142  -19.3278    0.0000 C   0  0  0  0  0  0  0  0  0  0  0  0
   30.7550  -19.3278    0.0000 C   0  0  0  0  0  0  0  0  0  0  0  0
   29.5698  -17.2357    0.0000 S   0  0  0  0  0  0  0  0  0  0  0  0
   28.3142  -20.6528    0.0000 C   0  0  0  0  0  0  0  0  0  0  0  0
   30.7550  -20.6528    0.0000 C   0  0  0  0  0  0  0  0  0  0  0  0
   29.5698  -15.8409    0.0000 O   0  0  0  0  0  0  0  0  0  0  0  0
   28.1750  -17.2357    0.0000 O   0  0  0  0  0  0  0  0  0  0  0  0
   30.9645  -17.2357    0.0000 O   0  0  0  0  0  0  0  0  0  0  0  0
   29.5695  -21.3502    0.0000 C   0  0  0  0  0  0  0  0  0  0  0  0
   19.3368  -16.0762    0.0000 C   0  0  0  0  0  0  0  0  0  0  0  0
   20.5198  -15.3803    0.0000 C   0  0  0  0  0  0  0  0  0  0  0  0
   18.1539  -15.3803    0.0000 C   0  0  0  0  0  0  0  0  0  0  0  0
   19.3368  -18.4421    0.0000 C   0  0  0  0  0  0  0  0  0  0  0  0
   20.5198  -13.9886    0.0000 C   0  0  0  0  0  0  0  0  0  0  0  0
   21.7028  -16.0762    0.0000 C   0  0  0  0  0  0  0  0  0  0  0  0
   18.1539  -13.9886    0.0000 C   0  0  0  0  0  0  0  0  0  0  0  0
   16.9709  -16.0066    0.0000 C   0  0  0  0  0  0  0  0  0  0  0  0
   20.5198  -19.1380    0.0000 C   0  0  0  0  0  0  0  0  0  0  0  0
   18.1539  -19.1380    0.0000 C   0  0  0  0  0  0  0  0  0  0  0  0
   19.3368  -13.2927    0.0000 N   0  0  0  0  0  0  0  0  0  0  0  0
   21.7028  -13.2927    0.0000 C   0  0  0  0  0  0  0  0  0  0  0  0
   22.8858  -15.3803    0.0000 O   0  0  0  0  0  0  0  0  0  0  0  0
   21.7028  -17.3983    0.0000 O   0  0  0  0  0  0  0  0  0  0  0  0
   16.9709  -13.2927    0.0000 C   0  0  0  0  0  0  0  0  0  0  0  0
   15.7879  -15.3803    0.0000 O   0  0  0  0  0  0  0  0  0  0  0  0
   16.9709  -17.3983    0.0000 O   0  0  0  0  0  0  0  0  0  0  0  0
   20.5198  -20.4601    0.0000 C   0  0  0  0  0  0  0  0  0  0  0  0
   21.7028  -18.4421    0.0000 Cl  0  0  0  0  0  0  0  0  0  0  0  0
   18.1539  -20.4601    0.0000 C   0  0  0  0  0  0  0  0  0  0  0  0
   22.8858  -13.9886    0.0000 O   0  0  0  0  0  0  0  0  0  0  0  0
   24.0687  -16.0762    0.0000 C   0  0  0  0  0  0  0  0  0  0  0  0
   14.6049  -16.0066    0.0000 C   0  0  0  0  0  0  0  0  0  0  0  0
   19.3368  -21.1560    0.0000 C   0  0  0  0  0  0  0  0  0  0  0  0
   24.0687  -13.2927    0.0000 C   0  0  0  0  0  0  0  0  0  0  0  0
   25.2517  -15.3803    0.0000 C   0  0  0  0  0  0  0  0  0  0  0  0
   25.2517  -13.9886    0.0000 C   0  0  0  0  0  0  0  0  0  0  0  0
   26.4347  -13.2927    0.0000 N   0  0  0  0  0  0  0  0  0  0  0  0
   28.6629  -16.1156    0.0000 C   0  0  0  0  0  0  0  0  0  0  0  0
   29.3546  -17.3137    0.0000 O   0  0  0  0  0  0  0  0  0  0  0  0
   31.2223  -17.3137    0.0000 O   0  0  0  0  0  0  0  0  0  0  0  0
   31.9140  -16.1156    0.0000 C   0  0  0  0  0  0  0  0  0  0  0  0
   31.2223  -14.9175    0.0000 C   0  0  0  0  0  0  0  0  0  0  0  0
   29.3546  -14.9175    0.0000 C   0  0  0  0  0  0  0  0  0  0  0  0
   33.2975  -16.1156    0.0000 O   0  0  0  0  0  0  0  0  0  0  0  0
   27.2794  -16.1156    0.0000 O   0  0  0  0  0  0  0  0  0  0  0  0
   21.0168  -13.2762    0.0000 C   0  0  0  0  0  0  0  0  0  0  0  0
   22.1998  -12.5803    0.0000 C   0  0  0  0  0  0  0  0  0  0  0  0
   19.8339  -12.5803    0.0000 C   0  0  0  0  0  0  0  0  0  0  0  0
   21.0168  -15.6421    0.0000 C   0  0  0  0  0  0  0  0  0  0  0  0
   22.1998  -11.1886    0.0000 C   0  0  0  0  0  0  0  0  0  0  0  0
   23.3828  -13.2762    0.0000 C   0  0  0  0  0  0  0  0  0  0  0  0
   19.8339  -11.1886    0.0000 C   0  0  0  0  0  0  0  0  0  0  0  0
   18.6509  -13.2066    0.0000 C   0  0  0  0  0  0  0  0  0  0  0  0
   22.1998  -16.3380    0.0000 C   0  0  0  0  0  0  0  0  0  0  0  0
   19.8339  -16.3380    0.0000 C   0  0  0  0  0  0  0  0  0  0  0  0
   21.0168  -10.4927    0.0000 N   0  0  0  0  0  0  0  0  0  0  0  0
   23.3828  -10.4927    0.0000 C   0  0  0  0  0  0  0  0  0  0  0  0
   24.5658  -12.5803    0.0000 O   0  0  0  0  0  0  0  0  0  0  0  0
   23.3828  -14.5983    0.0000 O   0  0  0  0  0  0  0  0  0  0  0  0
   18.6509  -10.4927    0.0000 C   0  0  0  0  0  0  0  0  0  0  0  0
   17.4679  -12.5803    0.0000 O   0  0  0  0  0  0  0  0  0  0  0  0
   18.6509  -14.5983    0.0000 O   0  0  0  0  0  0  0  0  0  0  0  0
   22.1998  -17.6601    0.0000 C   0  0  0  0  0  0  0  0  0  0  0  0
   23.3828  -15.6421    0.0000 Cl  0  0  0  0  0  0  0  0  0  0  0  0
   19.8339  -17.6601    0.0000 C   0  0  0  0  0  0  0  0  0  0  0  0
   24.5658  -11.1886    0.0000 O   0  0  0  0  0  0  0  0  0  0  0  0
   25.7487  -13.2762    0.0000 C   0  0  0  0  0  0  0  0  0  0  0  0
   16.2849  -13.2066    0.0000 C   0  0  0  0  0  0  0  0  0  0  0  0
   21.0168  -18.3560    0.0000 C   0  0  0  0  0  0  0  0  0  0  0  0
   25.7487  -10.4927    0.0000 C   0  0  0  0  0  0  0  0  0  0  0  0
   26.9317  -12.5803    0.0000 C   0  0  0  0  0  0  0  0  0  0  0  0
   26.9317  -11.1886    0.0000 C   0  0  0  0  0  0  0  0  0  0  0  0
   28.1147  -10.4927    0.0000 N   0  0  0  0  0  0  0  0  0  0  0  0
   23.9641  -17.9834    0.0000 C   0  0  0  0  0  0  0  0  0  0  0  0
   25.3657  -17.9834    0.0000 C   0  0  0  0  0  0  0  0  0  0  0  0
   23.1231  -16.8622    0.0000 N   0  0  0  0  0  0  0  0  0  0  0  0
   21.8150  -17.2826    0.0000 N   0  0  0  0  0  0  0  0  0  0  0  0
   21.8150  -18.6842    0.0000 C   0  0  0  0  0  0  0  0  0  0  0  0
   23.1231  -19.1047    0.0000 C   0  0  0  0  0  0  0  0  0  0  0  0
   25.3657  -19.3850    0.0000 F   0  0  0  0  0  0  0  0  0  0  0  0
   26.7672  -17.9834    0.0000 F   0  0  0  0  0  0  0  0  0  0  0  0
   25.3657  -16.5819    0.0000 F   0  0  0  0  0  0  0  0  0  0  0  0
   18.1709  -15.1803    0.0000 C   0  0  0  0  0  0  0  0  0  0  0  0
   18.1709  -16.5819    0.0000 C   0  0  0  0  0  0  0  0  0  0  0  0
   19.3856  -17.2826    0.0000 C   0  0  0  0  0  0  0  0  0  0  0  0
   20.6003  -16.5819    0.0000 C   0  0  0  0  0  0  0  0  0  0  0  0
   20.6003  -15.1803    0.0000 C   0  0  0  0  0  0  0  0  0  0  0  0
   19.3856  -14.4795    0.0000 C   0  0  0  0  0  0  0  0  0  0  0  0
   18.1709  -19.3850    0.0000 C   0  0  0  0  0  0  0  0  0  0  0  0
   18.1709  -20.7866    0.0000 C   0  0  0  0  0  0  0  0  0  0  0  0
   19.3856  -21.4874    0.0000 C   0  0  0  0  0  0  0  0  0  0  0  0
   20.6003  -20.7866    0.0000 C   0  0  0  0  0  0  0  0  0  0  0  0
   20.6003  -19.3850    0.0000 C   0  0  0  0  0  0  0  0  0  0  0  0
   19.3856  -18.6842    0.0000 C   0  0  0  0  0  0  0  0  0  0  0  0
   16.9572  -21.4876    0.0000 C   0  0  0  0  0  0  0  0  0  0  0  0
   16.9572  -14.4793    0.0000 S   0  0  0  0  0  0  0  0  0  0  0  0
   17.6570  -13.2647    0.0000 O   0  0  0  0  0  0  0  0  0  0  0  0
   16.2554  -15.6942    0.0000 O   0  0  0  0  0  0  0  0  0  0  0  0
   15.7415  -13.7787    0.0000 N   0  0  0  0  0  0  0  0  0  0  0  0
  1  2  1  0
  1  3  1  0
  1  4  1  0
  2  5  2  0
  2  6  1  0
  3  7  2  0
  3  8  1  0
  4  9  2  0
  4 10  1  0
  5 11  1  0
  5 12  1  0
  6 13  1  0
  6 14  2  0
  7 15  1  0
  8 16  1  0
  8 17  2  0
  9 18  1  0
  9 19  1  0
 10 20  2  0
 12 21  1  0
 13 22  1  0
 16 23  1  0
 18 24  2  0
 21 25  1  0
 22 26  1  0
 25 27  1  0
 27 28  1  0
  7 11  1  0
 20 24  1  0
 29 30  2  0
 29 31  1  0
 29 32  1  0
 30 33  1  0
 31 34  2  0
 32 35  1  0
 32 36  2  0
 32 37  2  0
 33 38  2  0
 34 38  1  0
 39 40  1  0
 39 41  1  0
 39 42  1  0
 40 43  2  0
 40 44  1  0
 41 45  2  0
 41 46  1  0
 42 47  2  0
 42 48  1  0
 43 49  1  0
 43 50  1  0
 44 51  1  0
 44 52  2  0
 45 53  1  0
 46 54  1  0
 46 55  2  0
 47 56  1  0
 47 57  1  0
 48 58  2  0
 50 59  1  0
 51 60  1  0
 54 61  1  0
 56 62  2  0
 59 63  1  0
 60 64  1  0
 63 65  1  0
 65 66  1  0
 45 49  1  0
 58 62  1  0
 67 68  2  0
 69 70  1  0
 70 71  1  0
 71 72  2  0
 67 72  1  0
 70 73  2  0
 67 74  1  0
 75 76  1  0
 75 77  1  0
 75 78  1  0
 76 79  2  0
 76 80  1  0
 77 81  2  0
 77 82  1  0
 78 83  2  0
 78 84  1  0
 79 85  1  0
 79 86  1  0
 80 87  1  0
 80 88  2  0
 81 89  1  0
 82 90  1  0
 82 91  2  0
 83 92  1  0
 83 93  1  0
 84 94  2  0
 86 95  1  0
 87 96  1  0
 90 97  1  0
 92 98  2  0
 95 99  1  0
 96100  1  0
 99101  1  0
101102  1  0
 81 85  1  0
 94 98  1  0
103104  1  0
103105  2  0
105106  1  0
106107  1  0
107108  2  0
103108  1  0
104109  1  0
104110  1  0
104111  1  0
112113  2  0
113114  1  0
114115  2  0
115116  1  0
116117  2  0
112117  1  0
115106  1  0
118119  2  0
119120  1  0
120121  2  0
121122  1  0
122123  2  0
118123  1  0
122107  1  0
119124  1  0
112125  1  0
125126  2  0
125127  2  0
125128  1  0
M  END
