 
     RDKit          2D

 27 27  0  1  1  0  0  0  0  0999 V2000
   16.2404  -17.2204    0.0000 C   0  0  0  0  0  0  0  0  0  0  0  0
   16.2404  -15.8204    0.0000 C   0  0  0  0  0  0  0  0  0  0  0  0
   15.0504  -15.1204    0.0000 C   0  0  0  0  0  0  0  0  0  0  0  0
   13.7903  -15.8204    0.0000 N   0  0  0  0  0  0  0  0  0  0  0  0
   13.7903  -17.2204    0.0000 C   0  0  0  0  0  0  0  0  0  0  0  0
   15.0504  -17.9204    0.0000 N   0  0  0  0  0  0  0  0  0  0  0  0
   17.4304  -17.9204    0.0000 N   0  0  0  0  0  0  0  0  0  0  0  0
   18.6905  -17.2204    0.0000 C   0  0  0  0  0  0  0  0  0  0  0  0
   18.6905  -15.8204    0.0000 C   0  0  0  0  0  0  0  0  0  0  0  0
   17.4304  -15.1204    0.0000 N   0  0  0  0  0  0  0  0  0  0  0  0
   19.8805  -17.9204    0.0000 O   0  0  0  0  0  0  0  0  0  0  0  0
   21.0705  -17.2204    0.0000 C   0  0  0  0  0  0  0  0  0  0  0  0
   21.0705  -15.8204    0.0000 C   0  0  0  0  0  0  0  0  0  0  0  0
   19.8805  -15.1204    0.0000 C   0  0  0  0  0  0  0  0  0  0  0  0
   22.3305  -17.9204    0.0000 C   0  0  0  0  0  0  0  0  0  0  0  0
   23.5206  -17.2204    0.0000 O   0  0  0  0  0  0  0  0  0  0  0  0
   23.5206  -15.8204    0.0000 P   0  0  0  0  0  0  0  0  0  0  0  0
   22.3305  -15.1204    0.0000 O   0  0  0  0  0  0  0  0  0  0  0  0
   15.0504  -13.7203    0.0000 O   0  0  0  0  0  0  0  0  0  0  0  0
   20.5805  -13.9303    0.0000 O   0  0  0  0  0  0  0  0  0  0  0  0
   19.1805  -13.9303    0.0000 O   0  0  0  0  0  0  0  0  0  0  0  0
   24.7106  -16.5204    0.0000 O   0  0  0  0  0  0  0  0  0  0  0  0
   23.5206  -14.4203    0.0000 O   0  0  0  0  0  0  0  0  0  0  0  0
   12.6003  -17.9204    0.0000 N   0  0  0  0  0  0  0  0  0  0  0  0
   27.5100  -15.0500    0.0000 Br  0  0  0  0  0  0  0  0  0  0  0  0
   28.1400  -18.6200    0.0000 O   0  0  0  0  0  0  0  0  0  0  0  0
   28.1400  -18.6200    0.0000 O   0  0  0  0  0  0  0  0  0  0  0  0
  1  2  2  0
  2  3  1  0
  3  4  1  0
  4  5  2  0
  5  6  1  0
  1  6  1  0
  1  7  1  0
  8  7  1  1
  8  9  1  0
  9 10  1  1
  2 10  1  0
  8 11  1  0
 11 12  1  0
 12 13  1  0
 13 14  1  0
  9 14  1  0
 12 15  1  1
 15 16  1  0
 16 17  1  0
 17 18  1  0
 13 18  1  1
  3 19  2  0
 14 20  1  0
 14 21  1  0
 17 22  1  0
 17 23  2  0
  5 24  1  0
M  STY  1   1 MUL
M  SLB  1   1   1
M  SCN  1   1 HT 
M  SAL   1  2  26  27
M  SPA   1  1  26
M  SDI   1  4   26.0400  -19.3200   26.0400  -17.6400
M  SDI   1  4   28.9800  -17.6400   28.9800  -19.3200
M  SMT   1 2
M  END
