 
     RDKit          2D

107116  0  0  1  0  0  0  0  0999 V2000
   18.0231  -16.0670    0.0000 N   0  0  0  0  0  0  0  0  0  0  0  0
   18.0231  -17.4641    0.0000 C   0  0  0  0  0  0  0  0  0  0  0  0
   19.2107  -18.1627    0.0000 C   0  0  0  0  0  0  0  0  0  0  0  0
   20.4681  -17.4641    0.0000 C   0  0  0  0  0  0  0  0  0  0  0  0
   20.4681  -16.0670    0.0000 C   0  0  0  0  0  0  0  0  0  0  0  0
   19.2107  -15.3684    0.0000 C   0  0  0  0  0  0  0  0  0  0  0  0
   19.2107  -13.9713    0.0000 N   0  0  0  0  0  0  0  0  0  0  0  0
   20.3284  -13.1330    0.0000 C   0  0  0  0  0  0  0  0  0  0  0  0
   19.9092  -11.8057    0.0000 C   0  0  0  0  0  0  0  0  0  0  0  0
   18.5121  -11.8057    0.0000 C   0  0  0  0  0  0  0  0  0  0  0  0
   18.0930  -13.1330    0.0000 C   0  0  0  0  0  0  0  0  0  0  0  0
   16.8356  -18.1627    0.0000 N   0  0  0  0  0  0  0  0  0  0  0  0
   21.6557  -15.3684    0.0000 C   0  0  0  0  0  0  0  0  0  0  0  0
   22.9131  -16.0670    0.0000 N   0  0  0  0  0  0  0  0  0  0  0  0
   21.6557  -13.9713    0.0000 O   0  0  0  0  0  0  0  0  0  0  0  0
   24.1006  -15.3684    0.0000 S   0  0  0  0  0  0  0  0  0  0  0  0
   25.2882  -16.0670    0.0000 C   0  0  0  0  0  0  0  0  0  0  0  0
   17.3944  -14.3904    0.0000 C   0  0  0  0  0  0  0  0  0  0  0  0
   16.9054  -12.4345    0.0000 C   0  0  0  0  0  0  0  0  0  0  0  0
   20.7475  -10.6880    0.0000 C   0  0  0  0  0  0  0  0  0  0  0  0
   25.0786  -14.3904    0.0000 O   0  0  0  0  0  0  0  0  0  0  0  0
   22.8432  -14.6699    0.0000 O   0  0  0  0  0  0  0  0  0  0  0  0
   25.2536  -17.4999    0.0000 C   0  0  0  0  0  0  0  0  0  0  0  0
   26.6021  -17.9786    0.0000 N   0  0  0  0  0  0  0  0  0  0  0  0
   27.4741  -16.8440    0.0000 N   0  0  0  0  0  0  0  0  0  0  0  0
   26.6645  -15.6641    0.0000 C   0  0  0  0  0  0  0  0  0  0  0  0
   28.8400  -16.8814    0.0000 C   0  0  0  0  0  0  0  0  0  0  0  0
   24.1115  -18.2860    0.0000 C   0  0  0  0  0  0  0  0  0  0  0  0
   15.5116  -17.7912    0.0000 C   0  0  0  0  0  0  0  0  0  0  0  0
   14.7436  -18.9387    0.0000 C   0  0  0  0  0  0  0  0  0  0  0  0
   15.5976  -20.0238    0.0000 C   0  0  0  0  0  0  0  0  0  0  0  0
   16.8934  -19.5468    0.0000 N   0  0  0  0  0  0  0  0  0  0  0  0
   15.2185  -21.3642    0.0000 O   0  0  0  0  0  0  0  0  0  0  0  0
   13.8185  -21.3642    0.0000 C   0  0  0  0  0  0  0  0  0  0  0  0
   13.1176  -22.5780    0.0000 C   0  0  0  0  0  0  0  0  0  0  0  0
   11.6904  -22.5772    0.0000 C   0  0  0  0  0  0  0  0  0  0  0  0
   13.8242  -23.8020    0.0000 C   0  0  0  0  0  0  0  0  0  0  0  0
   12.3967  -23.8263    0.0000 C   0  0  0  0  0  0  0  0  0  0  0  0
   10.9752  -23.8138    0.0000 F   0  0  0  0  0  0  0  0  0  0  0  0
   11.0050  -21.3890    0.0000 F   0  0  0  0  0  0  0  0  0  0  0  0
   10.2904  -22.5772    0.0000 F   0  0  0  0  0  0  0  0  0  0  0  0
    7.4900  -23.8000    0.0000 C   0  0  0  0  0  0  0  0  0  0  0  0
    7.4900  -22.4000    0.0000 C   0  0  0  0  0  0  0  0  0  0  0  0
    8.6800  -21.7000    0.0000 C   0  0  0  0  0  0  0  0  0  0  0  0
    9.9400  -22.4000    0.0000 C   0  0  0  0  0  0  0  0  0  0  0  0
    9.9400  -23.8000    0.0000 C   0  0  0  0  0  0  0  0  0  0  0  0
    8.6800  -24.5000    0.0000 C   0  0  0  0  0  0  0  0  0  0  0  0
   11.1300  -21.7000    0.0000 C   0  0  0  0  0  0  0  0  0  0  0  0
   12.3200  -22.4000    0.0000 C   0  0  0  0  0  0  0  0  0  0  0  0
   12.3200  -23.8000    0.0000 C   0  0  0  0  0  0  0  0  0  0  0  0
   11.1300  -24.5000    0.0000 N   0  0  0  0  0  0  0  0  0  0  0  0
   13.5100  -21.7000    0.0000 C   0  0  0  0  0  0  0  0  0  0  0  0
   14.7000  -22.4000    0.0000 N   0  0  0  0  0  0  0  0  0  0  0  0
   15.8900  -21.7000    0.0000 C   0  0  0  0  0  0  0  0  0  0  0  0
   13.5100  -20.3000    0.0000 O   0  0  0  0  0  0  0  0  0  0  0  0
   11.1300  -20.3000    0.0000 O   0  0  0  0  0  0  0  0  0  0  0  0
   15.8900  -20.3000    0.0000 C   0  0  0  0  0  0  0  0  0  0  0  0
   17.1500  -19.6000    0.0000 C   0  0  0  0  0  0  0  0  0  0  0  0
   18.3400  -20.3000    0.0000 C   0  0  0  0  0  0  0  0  0  0  0  0
   18.3400  -21.7000    0.0000 C   0  0  0  0  0  0  0  0  0  0  0  0
   17.1500  -22.4000    0.0000 C   0  0  0  0  0  0  0  0  0  0  0  0
   17.1500  -23.8000    0.0000 C   0  0  0  0  0  0  0  0  0  0  0  0
   18.3400  -24.5000    0.0000 C   0  0  0  0  0  0  0  0  0  0  0  0
   15.9600  -24.5000    0.0000 C   0  0  0  0  0  0  0  0  0  0  0  0
   17.1500  -25.2000    0.0000 C   0  0  0  0  0  0  0  0  0  0  0  0
   17.1500  -18.2000    0.0000 O   0  0  0  0  0  0  0  0  0  0  0  0
   19.5300  -19.6000    0.0000 C   0  0  0  0  0  0  0  0  0  0  0  0
   20.7200  -20.3000    0.0000 C   0  0  0  0  0  0  0  0  0  0  0  0
   19.5300  -18.2000    0.0000 C   0  0  0  0  0  0  0  0  0  0  0  0
   20.7900  -18.9000    0.0000 C   0  0  0  0  0  0  0  0  0  0  0  0
   16.1000  -21.3500    0.0000 C   0  0  0  0  0  0  0  0  0  0  0  0
   17.2900  -20.6500    0.0000 C   0  0  0  0  0  0  0  0  0  0  0  0
   14.8400  -20.6500    0.0000 C   0  0  0  0  0  0  0  0  0  0  0  0
   18.4800  -21.3500    0.0000 N   0  0  0  0  0  0  0  0  0  0  0  0
   19.6700  -20.6500    0.0000 C   0  0  0  0  0  0  0  0  0  0  0  0
   19.6700  -19.2500    0.0000 C   0  0  0  0  0  0  0  0  0  0  0  0
   20.9300  -18.5500    0.0000 C   0  0  0  0  0  0  0  0  0  0  0  0
   22.0500  -19.2500    0.0000 C   0  0  0  0  0  0  0  0  0  0  0  0
   22.0500  -20.6500    0.0000 C   0  0  0  0  0  0  0  0  0  0  0  0
   20.9300  -21.3500    0.0000 C   0  0  0  0  0  0  0  0  0  0  0  0
   17.2900  -19.2500    0.0000 O   0  0  0  0  0  0  0  0  0  0  0  0
   13.6500  -21.3500    0.0000 C   0  0  0  0  0  0  0  0  0  0  0  0
   12.3900  -20.6500    0.0000 C   0  0  0  0  0  0  0  0  0  0  0  0
   12.3900  -19.2500    0.0000 C   0  0  0  0  0  0  0  0  0  0  0  0
   13.5800  -18.5500    0.0000 C   0  0  0  0  0  0  0  0  0  0  0  0
   14.8400  -19.2500    0.0000 C   0  0  0  0  0  0  0  0  0  0  0  0
   11.0600  -21.0700    0.0000 O   0  0  0  0  0  0  0  0  0  0  0  0
   10.2900  -19.9500    0.0000 C   0  0  0  0  0  0  0  0  0  0  0  0
   11.0600  -18.8300    0.0000 O   0  0  0  0  0  0  0  0  0  0  0  0
    9.2400  -20.9300    0.0000 F   0  0  0  0  0  0  0  0  0  0  0  0
    9.2400  -18.9700    0.0000 F   0  0  0  0  0  0  0  0  0  0  0  0
   15.3300  -22.5400    0.0000 C   0  0  0  0  0  0  0  0  0  0  0  0
   16.8000  -22.5400    0.0000 C   0  0  0  0  0  0  0  0  0  0  0  0
   18.4800  -18.5500    0.0000 F   0  0  0  0  0  0  0  0  0  0  0  0
   23.3800  -18.8300    0.0000 N   0  0  0  0  0  0  0  0  0  0  0  0
   24.2200  -19.9500    0.0000 C   0  0  0  0  0  0  0  0  0  0  0  0
   23.3800  -21.0700    0.0000 C   0  0  0  0  0  0  0  0  0  0  0  0
   25.6200  -19.9500    0.0000 C   0  0  0  0  0  0  0  0  0  0  0  0
   26.3200  -21.1400    0.0000 C   0  0  0  0  0  0  0  0  0  0  0  0
   27.7200  -21.1400    0.0000 O   0  0  0  0  0  0  0  0  0  0  0  0
   23.3800  -17.4300    0.0000 C   0  0  0  0  0  0  0  0  0  0  0  0
   24.5700  -16.7300    0.0000 C   0  0  0  0  0  0  0  0  0  0  0  0
   25.7600  -17.4300    0.0000 O   0  0  0  0  0  0  0  0  0  0  0  0
   24.5700  -15.3300    0.0000 C   0  0  0  0  0  0  0  0  0  0  0  0
   25.7600  -14.6300    0.0000 O   0  0  0  0  0  0  0  0  0  0  0  0
   26.3200  -18.7600    0.0000 C   0  0  0  0  0  0  0  0  0  0  0  0
   27.0200  -19.9500    0.0000 C   0  0  0  0  0  0  0  0  0  0  0  0
  1  2  2  0
  2  3  1  0
  3  4  2  0
  4  5  1  0
  5  6  2  0
  1  6  1  0
  6  7  1  0
  7  8  1  0
  8  9  1  0
  9 10  1  0
 10 11  1  0
  7 11  1  0
  2 12  1  0
  5 13  1  0
 13 14  1  0
 13 15  2  0
 14 16  1  0
 16 17  1  0
 11 18  1  0
 11 19  1  0
  9 20  1  6
 16 21  2  0
 16 22  2  0
 17 23  1  0
 23 24  2  0
 24 25  1  0
 25 26  1  0
 17 26  2  0
 25 27  1  0
 23 28  1  0
 12 29  1  0
 29 30  2  0
 30 31  1  0
 31 32  2  0
 12 32  1  0
 31 33  1  0
 33 34  1  0
 34 35  1  0
 35 36  1  0
 35 37  1  0
 35 38  1  0
 36 39  1  0
 36 40  1  0
 36 41  1  0
 42 43  2  0
 43 44  1  0
 44 45  2  0
 45 46  1  0
 46 47  2  0
 42 47  1  0
 45 48  1  0
 48 49  1  0
 49 50  2  0
 50 51  1  0
 46 51  1  0
 49 52  1  0
 52 53  1  0
 53 54  1  0
 52 55  2  0
 48 56  2  0
 54 57  2  0
 57 58  1  0
 58 59  2  0
 59 60  1  0
 60 61  2  0
 54 61  1  0
 61 62  1  0
 62 63  1  0
 62 64  1  0
 62 65  1  0
 58 66  1  0
 59 67  1  0
 67 68  1  0
 67 69  1  0
 67 70  1  0
 71 72  1  0
 71 73  1  0
 72 74  1  0
 74 75  1  0
 75 76  2  0
 76 77  1  0
 77 78  2  0
 78 79  1  0
 79 80  2  0
 75 80  1  0
 72 81  2  0
 73 82  2  0
 82 83  1  0
 83 84  2  0
 84 85  1  0
 85 86  2  0
 73 86  1  0
 83 87  1  0
 87 88  1  0
 88 89  1  0
 84 89  1  0
 88 90  1  0
 88 91  1  0
 92 93  1  0
 93 71  1  0
 71 92  1  0
 76 94  1  0
 78 95  1  0
 95 96  1  0
 96 97  2  0
 79 97  1  0
 96 98  1  0
 98 99  1  0
 99100  1  0
 95101  1  0
101102  1  0
102103  1  6
102104  1  0
104105  1  0
 98106  1  0
 98107  1  0
M  END
