 
     RDKit          2D

 24 27  0  0  1  0  0  0  0  0999 V2000
   19.8100  -18.9700    0.0000 C   0  0  0  0  0  0  0  0  0  0  0  0
   19.8100  -17.5700    0.0000 C   0  0  0  0  0  0  0  0  0  0  0  0
   18.6200  -16.8700    0.0000 C   0  0  0  0  0  0  0  0  0  0  0  0
   17.3600  -17.5700    0.0000 N   0  0  0  0  0  0  0  0  0  0  0  0
   17.3600  -18.9700    0.0000 C   0  0  0  0  0  0  0  0  0  0  0  0
   18.6200  -19.6700    0.0000 N   0  0  0  0  0  0  0  0  0  0  0  0
   21.0000  -19.6700    0.0000 N   0  0  0  0  0  0  0  0  0  0  0  0
   22.2600  -18.9700    0.0000 C   0  0  0  0  0  0  0  0  0  0  0  0
   22.2600  -17.5700    0.0000 C   0  0  0  0  0  0  0  0  0  0  0  0
   21.0000  -16.8700    0.0000 N   0  0  0  0  0  0  0  0  0  0  0  0
   23.4500  -19.6700    0.0000 O   0  0  0  0  0  0  0  0  0  0  0  0
   24.6400  -18.9700    0.0000 C   0  0  0  0  0  0  0  0  0  0  0  0
   24.6400  -17.5700    0.0000 C   0  0  0  0  0  0  0  0  0  0  0  0
   23.4500  -16.8700    0.0000 C   0  0  0  0  0  0  0  0  0  0  0  0
   25.9000  -19.6700    0.0000 C   0  0  0  0  0  0  0  0  0  0  0  0
   27.0900  -18.9700    0.0000 O   0  0  0  0  0  0  0  0  0  0  0  0
   27.0900  -17.5700    0.0000 P   0  0  0  0  0  0  0  0  0  0  0  0
   25.9000  -16.8700    0.0000 O   0  0  0  0  0  0  0  0  0  0  0  0
   18.6200  -15.4700    0.0000 O   0  0  0  0  0  0  0  0  0  0  0  0
   24.1500  -15.6800    0.0000 O   0  0  0  0  0  0  0  0  0  0  0  0
   22.7500  -15.6800    0.0000 O   0  0  0  0  0  0  0  0  0  0  0  0
   28.2800  -18.2700    0.0000 O   0  0  0  0  0  0  0  0  0  0  0  0
   27.0900  -16.1700    0.0000 O   0  0  0  0  0  0  0  0  0  0  0  0
   16.1700  -19.6700    0.0000 N   0  0  0  0  0  0  0  0  0  0  0  0
  1  2  2  0
  2  3  1  0
  3  4  1  0
  4  5  2  0
  5  6  1  0
  1  6  1  0
  1  7  1  0
  8  7  1  1
  8  9  1  0
  9 10  1  1
  2 10  1  0
  8 11  1  0
 11 12  1  0
 12 13  1  0
 13 14  1  0
  9 14  1  0
 12 15  1  1
 15 16  1  0
 16 17  1  0
 17 18  1  0
 13 18  1  1
  3 19  2  0
 14 20  1  0
 14 21  1  0
 17 22  1  0
 17 23  2  0
  5 24  1  0
M  END
