 
     RDKit          2D

 45 46  0  0  0  0  0  0  0  0999 V2000
   16.8000  -15.8900    0.0000 C   0  0  0  0  0  0  0  0  0  0  0  0
   17.9900  -15.1900    0.0000 C   0  0  0  0  0  0  0  0  0  0  0  0
   16.8000  -17.2900    0.0000 C   0  0  0  0  0  0  0  0  0  0  0  0
   15.6100  -15.1900    0.0000 C   0  0  0  0  0  0  0  0  0  0  0  0
   19.1800  -15.8900    0.0000 C   0  0  0  0  0  0  0  0  0  0  0  0
   15.6100  -17.9900    0.0000 C   0  0  0  0  0  0  0  0  0  0  0  0
   14.4200  -15.8900    0.0000 C   0  0  0  0  0  0  0  0  0  0  0  0
   19.1800  -14.3500    0.0000 C   0  0  0  0  0  0  0  0  0  0  0  0
   19.1800  -17.2900    0.0000 C   0  0  0  0  0  0  0  0  0  0  0  0
   20.3700  -15.1900    0.0000 N   0  0  0  0  0  0  0  0  0  0  0  0
   14.4200  -17.2900    0.0000 C   0  0  0  0  0  0  0  0  0  0  0  0
   22.8900  -16.5900    0.0000 Cl  0  0  0  0  0  0  0  0  0  0  0  0
   18.0600  -15.8900    0.0000 C   0  0  0  0  0  0  0  0  0  0  0  0
   19.2500  -15.1900    0.0000 C   0  0  0  0  0  0  0  0  0  0  0  0
   18.0600  -17.2900    0.0000 C   0  0  0  0  0  0  0  0  0  0  0  0
   16.8700  -15.1900    0.0000 C   0  0  0  0  0  0  0  0  0  0  0  0
   20.4400  -15.8900    0.0000 C   0  0  0  0  0  0  0  0  0  0  0  0
   16.8700  -17.9900    0.0000 C   0  0  0  0  0  0  0  0  0  0  0  0
   15.6800  -15.8900    0.0000 C   0  0  0  0  0  0  0  0  0  0  0  0
   20.4400  -14.3500    0.0000 C   0  0  0  0  0  0  0  0  0  0  0  0
   20.4400  -17.2900    0.0000 C   0  0  0  0  0  0  0  0  0  0  0  0
   21.6300  -15.1900    0.0000 N   0  0  0  0  0  0  0  0  0  0  0  0
   15.6800  -17.2900    0.0000 C   0  0  0  0  0  0  0  0  0  0  0  0
   25.3046  -17.3949    0.0000 C   0  0  0  0  0  0  0  0  0  0  0  0
   24.0984  -18.0942    0.0000 C   0  0  0  0  0  0  0  0  0  0  0  0
   26.3475  -18.3213    0.0000 O   0  0  0  0  0  0  0  0  0  0  0  0
   25.3046  -15.9906    0.0000 O   0  0  0  0  0  0  0  0  0  0  0  0
   22.8865  -17.3949    0.0000 C   0  0  0  0  0  0  0  0  0  0  0  0
   24.3957  -19.4576    0.0000 O   0  0  0  0  0  0  0  0  0  0  0  0
   25.9282  -19.6733    0.0000 C   0  0  0  0  0  0  0  0  0  0  0  0
   24.0925  -15.2856    0.0000 C   0  0  0  0  0  0  0  0  0  0  0  0
   22.8806  -15.9906    0.0000 C   0  0  0  0  0  0  0  0  0  0  0  0
   21.5521  -17.8260    0.0000 O   0  0  0  0  0  0  0  0  0  0  0  0
   21.5462  -15.5595    0.0000 O   0  0  0  0  0  0  0  0  0  0  0  0
   20.7247  -16.6957    0.0000 C   0  0  0  0  0  0  0  0  0  0  0  0
   19.7225  -15.6876    0.0000 C   0  0  0  0  0  0  0  0  0  0  0  0
   19.7225  -17.6803    0.0000 C   0  0  0  0  0  0  0  0  0  0  0  0
   26.6914  -17.3949    0.0000 C   0  0  0  0  0  0  0  0  0  0  0  0
   27.3906  -16.1829    0.0000 O   0  0  0  0  0  0  0  0  0  0  0  0
   28.7831  -16.1829    0.0000 S   0  0  0  0  0  0  0  0  0  0  0  0
   28.7774  -17.5813    0.0000 O   0  0  0  0  0  0  0  0  0  0  0  0
   25.5659  -21.0256    0.0000 C   0  0  0  0  0  0  0  0  0  0  0  0
   27.3282  -19.6733    0.0000 C   0  0  0  0  0  0  0  0  0  0  0  0
   30.1831  -16.1829    0.0000 O   0  0  0  0  0  0  0  0  0  0  0  0
   28.7831  -14.7829    0.0000 N   0  0  0  0  0  0  0  0  0  0  0  0
  1  2  1  0
  1  3  2  0
  1  4  1  0
  2  5  1  0
  3  6  1  0
  4  7  2  0
  5  8  1  0
  5  9  1  0
  5 10  1  0
  6 11  2  0
  7 11  1  0
 13 14  1  0
 13 15  2  0
 13 16  1  0
 14 17  1  0
 15 18  1  0
 16 19  2  0
 17 20  1  0
 17 21  1  0
 17 22  1  0
 18 23  2  0
 19 23  1  0
 24 25  1  0
 24 26  1  0
 24 27  1  0
 25 28  1  0
 25 29  1  1
 26 30  1  0
 27 31  1  0
 28 32  1  0
 28 33  1  6
 32 34  1  0
 33 35  1  0
 35 36  1  0
 35 37  1  0
 29 30  1  0
 32 31  1  6
 34 35  1  0
 38 39  1  0
 39 40  1  0
 40 41  2  0
 24 38  1  6
 30 42  1  0
 30 43  1  0
 40 44  2  0
 40 45  1  0
M  END
