 
     RDKit          2D

 34 36  0  0  1  0  0  0  0  0999 V2000
   27.5800  -21.1400    0.0000 C   0  0  0  0  0  0  0  0  0  0  0  0
   28.9800  -21.1400    0.0000 C   0  0  0  0  0  0  0  0  0  0  0  0
   29.4000  -19.8100    0.0000 C   0  0  0  0  0  0  0  0  0  0  0  0
   28.2800  -18.9700    0.0000 O   0  0  0  0  0  0  0  0  0  0  0  0
   27.1600  -19.8100    0.0000 C   0  0  0  0  0  0  0  0  0  0  0  0
   25.8300  -19.3900    0.0000 C   0  0  0  0  0  0  0  0  0  0  0  0
   26.7400  -22.2600    0.0000 O   0  0  0  0  0  0  0  0  0  0  0  0
   24.7800  -20.3000    0.0000 O   0  0  0  0  0  0  0  0  0  0  0  0
   30.7330  -19.3820    0.0000 N   0  0  0  0  0  0  0  0  0  0  0  0
   31.9454  -20.0820    0.0000 C   0  0  0  0  0  0  0  0  0  0  0  0
   33.1578  -19.3820    0.0000 N   0  0  0  0  0  0  0  0  0  0  0  0
   33.1578  -17.9820    0.0000 C   0  0  0  0  0  0  0  0  0  0  0  0
   31.9454  -17.2820    0.0000 N   0  0  0  0  0  0  0  0  0  0  0  0
   30.7330  -17.9820    0.0000 C   0  0  0  0  0  0  0  0  0  0  0  0
   31.9455  -21.4898    0.0000 O   0  0  0  0  0  0  0  0  0  0  0  0
   34.3832  -17.2743    0.0000 N   0  0  0  0  0  0  0  0  0  0  0  0
   16.2055  -16.9039    0.0000 C   0  0  0  0  0  0  0  0  0  0  0  0
   16.6246  -18.2311    0.0000 C   0  0  0  0  0  0  0  0  0  0  0  0
   18.0217  -18.2311    0.0000 C   0  0  0  0  0  0  0  0  0  0  0  0
   18.4408  -16.9039    0.0000 C   0  0  0  0  0  0  0  0  0  0  0  0
   17.3232  -16.0657    0.0000 O   0  0  0  0  0  0  0  0  0  0  0  0
   14.8784  -16.4848    0.0000 C   0  0  0  0  0  0  0  0  0  0  0  0
   19.7679  -16.4848    0.0000 N   0  0  0  0  0  0  0  0  0  0  0  0
   13.8306  -17.3929    0.0000 O   0  0  0  0  0  0  0  0  0  0  0  0
   15.7864  -19.3487    0.0000 O   0  0  0  0  0  0  0  0  0  0  0  0
   20.9554  -17.1833    0.0000 C   0  0  0  0  0  0  0  0  0  0  0  0
   22.2127  -16.4848    0.0000 C   0  0  0  0  0  0  0  0  0  0  0  0
   22.2127  -15.0878    0.0000 C   0  0  0  0  0  0  0  0  0  0  0  0
   21.0252  -14.3893    0.0000 N   0  0  0  0  0  0  0  0  0  0  0  0
   19.7679  -15.0878    0.0000 C   0  0  0  0  0  0  0  0  0  0  0  0
   18.0217  -19.6311    0.0000 F   0  0  0  0  0  0  0  0  0  0  0  0
   19.4217  -18.2311    0.0000 F   0  0  0  0  0  0  0  0  0  0  0  0
   18.5553  -14.3740    0.0000 O   0  0  0  0  0  0  0  0  0  0  0  0
   23.3971  -14.4108    0.0000 O   0  0  0  0  0  0  0  0  0  0  0  0
  1  2  1  0
  2  3  1  0
  3  4  1  0
  4  5  1  0
  1  5  1  0
  5  6  1  1
  1  7  1  6
  6  8  1  0
  3  9  1  1
  9 10  1  0
 10 11  1  0
 11 12  2  0
 12 13  1  0
 13 14  2  0
  9 14  1  0
 10 15  2  0
 12 16  1  0
 17 18  1  0
 18 19  1  0
 19 20  1  0
 20 21  1  0
 17 21  1  0
 17 22  1  1
 20 23  1  1
 22 24  1  0
 18 25  1  6
 23 26  1  0
 26 27  1  0
 27 28  1  0
 28 29  1  0
 29 30  1  0
 23 30  1  0
 19 31  1  0
 19 32  1  0
 30 33  2  0
 28 34  1  6
M  END
