 
     RDKit          2D

163172  0  1  0  0  0  0  0  0999 V2000
   39.5425  -21.5845    0.0000 Mg  0  0  0  0  0 15  0  0  0  0  0  0
   22.6100  -19.3200    0.0000 C   0  0  0  0  0  0  0  0  0  0  0  0
   22.6100  -20.7200    0.0000 C   0  0  0  0  0  0  0  0  0  0  0  0
   23.8700  -21.4200    0.0000 C   0  0  0  0  0  0  0  0  0  0  0  0
   25.0600  -20.7200    0.0000 C   0  0  0  0  0  0  0  0  0  0  0  0
   25.0600  -19.3200    0.0000 C   0  0  0  0  0  0  0  0  0  0  0  0
   23.8700  -18.6200    0.0000 C   0  0  0  0  0  0  0  0  0  0  0  0
   26.3900  -21.1400    0.0000 N   0  0  0  0  0  0  0  0  0  0  0  0
   27.2300  -20.0200    0.0000 C   0  0  0  0  0  0  0  0  0  0  0  0
   26.3900  -18.9000    0.0000 N   0  0  0  0  0  0  0  0  0  0  0  0
   28.6300  -20.0200    0.0000 S   0  0  0  0  0  0  0  0  0  0  0  0
   21.3500  -21.4200    0.0000 O   0  0  0  0  0  0  0  0  0  0  0  0
   20.1600  -20.7200    0.0000 C   0  0  0  0  0  0  0  0  0  0  0  0
   29.3300  -21.2100    0.0000 C   0  0  0  0  0  0  0  0  0  0  0  0
   29.3300  -18.8300    0.0000 O   0  0  0  0  0  0  0  0  0  0  0  0
   30.7300  -21.2100    0.0000 C   0  0  0  0  0  0  0  0  0  0  0  0
   31.4300  -22.4000    0.0000 C   0  0  0  0  0  0  0  0  0  0  0  0
   32.9000  -22.4000    0.0000 C   0  0  0  0  0  0  0  0  0  0  0  0
   33.6000  -21.2100    0.0000 C   0  0  0  0  0  0  0  0  0  0  0  0
   32.9000  -20.0200    0.0000 C   0  0  0  0  0  0  0  0  0  0  0  0
   31.4300  -20.0200    0.0000 N   0  0  0  0  0  0  0  0  0  0  0  0
   35.0000  -21.2100    0.0000 C   0  0  0  0  0  0  0  0  0  0  0  0
   33.6000  -23.6600    0.0000 O   0  0  0  0  0  0  0  0  0  0  0  0
   35.0000  -23.6600    0.0000 C   0  0  0  0  0  0  0  0  0  0  0  0
   30.7300  -23.5900    0.0000 C   0  0  0  0  0  0  0  0  0  0  0  0
   22.6100  -19.3200    0.0000 C   0  0  0  0  0  0  0  0  0  0  0  0
   22.6100  -20.7200    0.0000 C   0  0  0  0  0  0  0  0  0  0  0  0
   23.8700  -21.4200    0.0000 C   0  0  0  0  0  0  0  0  0  0  0  0
   25.0600  -20.7200    0.0000 C   0  0  0  0  0  0  0  0  0  0  0  0
   25.0600  -19.3200    0.0000 C   0  0  0  0  0  0  0  0  0  0  0  0
   23.8700  -18.6200    0.0000 C   0  0  0  0  0  0  0  0  0  0  0  0
   26.3900  -18.9000    0.0000 N   0  0  0  0  0  0  0  0  0  0  0  0
   27.2300  -20.0200    0.0000 C   0  0  0  0  0  0  0  0  0  0  0  0
   26.3900  -21.1400    0.0000 N   0  0  0  0  0  0  0  0  0  0  0  0
   28.6300  -20.0200    0.0000 S   0  0  0  0  0  0  0  0  0  0  0  0
   29.3300  -21.2100    0.0000 C   0  0  0  0  0  0  0  0  0  0  0  0
   30.7300  -21.2100    0.0000 C   0  0  0  0  0  0  0  0  0  0  0  0
   31.4300  -22.4000    0.0000 C   0  0  0  0  0  0  0  0  0  0  0  0
   32.9000  -22.4000    0.0000 C   0  0  0  0  0  0  0  0  0  0  0  0
   33.6000  -21.2100    0.0000 C   0  0  0  0  0  0  0  0  0  0  0  0
   32.9000  -20.0200    0.0000 C   0  0  0  0  0  0  0  0  0  0  0  0
   31.4300  -20.0200    0.0000 N   0  0  0  0  0  0  0  0  0  0  0  0
   35.0000  -21.2100    0.0000 C   0  0  0  0  0  0  0  0  0  0  0  0
   33.6000  -23.6600    0.0000 O   0  0  0  0  0  0  0  0  0  0  0  0
   35.0000  -23.6600    0.0000 C   0  0  0  0  0  0  0  0  0  0  0  0
   30.7300  -23.5900    0.0000 C   0  0  0  0  0  0  0  0  0  0  0  0
   29.3300  -18.8300    0.0000 O   0  0  0  0  0  0  0  0  0  0  0  0
   21.3500  -21.4200    0.0000 O   0  0  0  0  0  0  0  0  0  0  0  0
   20.1600  -20.7200    0.0000 C   0  0  0  0  0  0  0  0  0  0  0  0
   24.5313  -17.0264    0.0000 C   0  0  0  0  0  0  0  0  0  0  0  0
   24.5313  -18.4300    0.0000 C   0  0  0  0  0  0  0  0  0  0  0  0
   25.9349  -18.4300    0.0000 N   0  0  0  0  0  0  0  0  0  0  0  0
   25.9349  -17.0264    0.0000 C   0  0  0  0  0  0  0  0  0  0  0  0
   27.2683  -18.8510    0.0000 C   0  0  0  0  0  0  0  0  0  0  0  0
   28.1103  -17.7281    0.0000 C   0  0  0  0  0  0  0  0  0  0  0  0
   27.2683  -16.6053    0.0000 S   0  0  0  0  0  0  0  0  0  0  0  0
   29.0929  -18.7107    0.0000 C   0  0  0  0  0  0  0  0  0  0  0  0
   29.0929  -16.7456    0.0000 C   0  0  0  0  0  0  0  0  0  0  0  0
   27.7595  -20.1844    0.0000 C   0  0  0  0  0  0  0  0  0  0  0  0
   29.1630  -20.1844    0.0000 O   0  0  0  0  0  0  0  0  0  0  0  0
   26.9173  -21.3072    0.0000 O   0  0  0  0  0  0  0  0  0  0  0  0
   23.3383  -16.3246    0.0000 N   0  0  0  0  0  0  0  0  0  0  0  0
   22.1452  -17.0264    0.0000 C   0  0  0  0  0  0  0  0  0  0  0  0
   23.3383  -19.1317    0.0000 O   0  0  0  0  0  0  0  0  0  0  0  0
   22.1452  -18.4300    0.0000 O   0  0  0  0  0  0  0  0  0  0  0  0
   20.9268  -16.3295    0.0000 C   0  0  0  0  0  0  0  0  0  0  0  0
   19.7355  -17.0241    0.0000 C   0  0  0  0  0  0  0  0  0  0  0  0
   20.9268  -14.9295    0.0000 N   0  0  0  0  0  0  0  0  0  0  0  0
   18.5230  -16.3241    0.0000 C   0  0  0  0  0  0  0  0  0  0  0  0
   17.3106  -17.0241    0.0000 C   0  0  0  0  0  0  0  0  0  0  0  0
   17.3106  -18.4241    0.0000 C   0  0  0  0  0  0  0  0  0  0  0  0
   18.5230  -19.1241    0.0000 C   0  0  0  0  0  0  0  0  0  0  0  0
   19.7355  -18.4241    0.0000 C   0  0  0  0  0  0  0  0  0  0  0  0
   16.0891  -19.1295    0.0000 O   0  0  0  0  0  0  0  0  0  0  0  0
   34.0923  -18.2711    0.0000 O   0  0  0  0  0  0  0  0  0  0  0  0
   34.0923  -18.2711    0.0000 O   0  0  0  0  0  0  0  0  0  0  0  0
   34.0923  -18.2711    0.0000 O   0  0  0  0  0  0  0  0  0  0  0  0
   25.2700  -16.8000    0.0000 C   0  0  0  0  0  0  0  0  0  0  0  0
   25.2700  -18.2000    0.0000 C   0  0  0  0  0  0  0  0  0  0  0  0
   26.6700  -18.2000    0.0000 N   0  0  0  0  0  0  0  0  0  0  0  0
   26.6700  -16.8000    0.0000 C   0  0  0  0  0  0  0  0  0  0  0  0
   28.0000  -18.6200    0.0000 C   0  0  0  0  0  0  0  0  0  0  0  0
   28.8400  -17.5000    0.0000 C   0  0  0  0  0  0  0  0  0  0  0  0
   28.0000  -16.3800    0.0000 S   0  0  0  0  0  0  0  0  0  0  0  0
   29.8200  -18.4800    0.0000 C   0  0  0  0  0  0  0  0  0  0  0  0
   29.8200  -16.5200    0.0000 C   0  0  0  0  0  0  0  0  0  0  0  0
   28.4900  -20.0200    0.0000 C   0  0  0  0  0  0  0  0  0  0  0  0
   29.8900  -20.0200    0.0000 O   0  0  0  0  0  0  0  0  0  0  0  0
   27.6500  -21.1400    0.0000 O   0  0  0  0  0  0  0  0  0  0  0  0
   24.0800  -16.1000    0.0000 N   0  0  0  0  0  0  0  0  0  0  0  0
   22.8900  -16.8000    0.0000 C   0  0  0  0  0  0  0  0  0  0  0  0
   24.0800  -18.9000    0.0000 O   0  0  0  0  0  0  0  0  0  0  0  0
   22.8900  -18.2000    0.0000 O   0  0  0  0  0  0  0  0  0  0  0  0
   21.6300  -16.1000    0.0000 C   0  0  0  0  0  0  0  0  0  0  0  0
   20.4400  -16.8000    0.0000 C   0  0  0  0  0  0  0  0  0  0  0  0
   21.6300  -14.7000    0.0000 N   0  0  0  0  0  0  0  0  0  0  0  0
   19.2500  -16.1000    0.0000 C   0  0  0  0  0  0  0  0  0  0  0  0
   17.9900  -16.8000    0.0000 C   0  0  0  0  0  0  0  0  0  0  0  0
   17.9900  -18.2000    0.0000 C   0  0  0  0  0  0  0  0  0  0  0  0
   19.2500  -18.9000    0.0000 C   0  0  0  0  0  0  0  0  0  0  0  0
   20.4400  -18.2000    0.0000 C   0  0  0  0  0  0  0  0  0  0  0  0
   16.8000  -18.9000    0.0000 O   0  0  0  0  0  0  0  0  0  0  0  0
   21.8400   -4.9000    0.0000 C   0  0  0  0  0  0  0  0  0  0  0  0
   21.8400   -6.3700    0.0000 C   0  0  0  0  0  0  0  0  0  0  0  0
   24.2900   -6.3000    0.0000 O   0  0  0  0  0  0  0  0  0  0  0  0
   24.2900   -4.9000    0.0000 C   0  0  0  0  0  0  0  0  0  0  0  0
   23.0300   -4.2000    0.0000 C   0  0  0  0  0  0  0  0  0  0  0  0
   26.6700   -4.9000    0.0000 C   0  0  0  0  0  0  0  0  0  0  0  0
   25.4800   -4.2000    0.0000 C   0  0  0  0  0  0  0  0  0  0  0  0
   27.9300   -7.0700    0.0000 C   0  0  0  0  0  0  0  0  0  0  0  0
   29.1200   -6.3700    0.0000 C   0  0  0  0  0  0  0  0  0  0  0  0
   29.1200   -4.9000    0.0000 C   0  0  0  0  0  0  0  0  0  0  0  0
   27.9300   -4.2000    0.0000 C   0  0  0  0  0  0  0  0  0  0  0  0
   25.4800   -2.8000    0.0000 C   0  0  0  0  0  0  0  0  0  0  0  0
   23.0300   -2.8000    0.0000 C   0  0  0  0  0  0  0  0  0  0  0  0
   20.6500   -4.2000    0.0000 O   0  0  0  0  0  0  0  0  0  0  0  0
   30.3100   -7.0700    0.0000 C   0  0  0  0  0  0  0  0  0  0  0  0
   26.7400   -6.3700    0.0000 O   0  0  0  0  0  0  0  0  0  0  0  0
   27.9300   -8.7500    0.0000 N   0  0  0  0  0  0  0  0  0  0  0  0
   20.6500   -7.0700    0.0000 C   0  0  0  0  0  0  0  0  0  0  0  0
   19.4600   -6.3700    0.0000 O   0  0  0  0  0  0  0  0  0  0  0  0
   20.6500   -8.7500    0.0000 C   0  0  0  0  0  0  0  0  0  0  0  0
   26.7400   -9.4500    0.0000 C   0  0  0  0  0  0  0  0  0  0  0  0
   26.7400  -10.8500    0.0000 C   0  0  0  0  0  0  0  0  0  0  0  0
   25.4800   -8.7500    0.0000 C   0  0  0  0  0  0  0  0  0  0  0  0
   24.2900   -9.4500    0.0000 C   0  0  0  0  0  0  0  0  0  0  0  0
   24.2900  -10.8500    0.0000 C   0  0  0  0  0  0  0  0  0  0  0  0
   25.4800  -11.5500    0.0000 C   0  0  0  0  0  0  0  0  0  0  0  0
   23.1000   -8.7500    0.0000 C   0  0  0  0  0  0  0  0  0  0  0  0
   21.8400   -9.4500    0.0000 C   0  0  0  0  0  0  0  0  0  0  0  0
   21.8400  -10.8500    0.0000 C   0  0  0  0  0  0  0  0  0  0  0  0
   23.1000  -11.5500    0.0000 C   0  0  0  0  0  0  0  0  0  0  0  0
   25.4800   -7.3500    0.0000 O   0  0  0  0  0  0  0  0  0  0  0  0
   23.1000   -7.3500    0.0000 O   0  0  0  0  0  0  0  0  0  0  0  0
   20.6500   -5.2500    0.0000 C   0  0  0  0  0  0  0  0  0  0  0  0
   18.2000   -5.6700    0.0000 C   0  0  0  0  0  0  0  0  0  0  0  0
   17.0100   -6.3700    0.0000 C   0  0  0  0  0  0  0  0  0  0  0  0
   18.2000   -4.2700    0.0000 O   0  0  0  0  0  0  0  0  0  0  0  0
   25.4800  -12.9500    0.0000 N   0  0  0  0  0  0  0  0  0  0  0  0
   28.0000  -12.9500    0.0000 C   0  0  0  0  0  0  0  0  0  0  0  0
   28.0000  -11.5500    0.0000 N   0  0  0  0  0  0  0  0  0  0  0  0
   28.0000  -14.3500    0.0000 C   0  0  0  0  0  0  0  0  0  0  0  0
   29.2124  -15.0500    0.0000 C   0  0  0  0  0  0  0  0  0  0  0  0
   30.4249  -14.3500    0.0000 N   0  0  0  0  0  0  0  0  0  0  0  0
   30.4249  -12.9500    0.0000 C   0  0  0  0  0  0  0  0  0  0  0  0
   29.2124  -12.2500    0.0000 C   0  0  0  0  0  0  0  0  0  0  0  0
   31.6560  -15.0610    0.0000 C   0  0  0  0  0  0  0  0  0  0  0  0
   32.8612  -14.3653    0.0000 C   0  0  0  0  0  0  0  0  0  0  0  0
   34.0435  -15.0481    0.0000 C   0  0  0  0  0  0  0  0  0  0  0  0
   32.8616  -12.9504    0.0000 C   0  0  0  0  0  0  0  0  0  0  0  0
   19.4376   -9.4500    0.0000 C   0  0  0  0  0  0  0  0  0  0  0  0
   18.2421   -8.7596    0.0000 O   0  0  0  0  0  0  0  0  0  0  0  0
   19.4375  -10.8498    0.0000 C   0  0  0  0  0  0  0  0  0  0  0  0
   19.4376   -7.7700    0.0000 C   0  0  0  0  0  0  0  0  0  0  0  0
   17.0547   -9.4451    0.0000 C   0  0  0  0  0  0  0  0  0  0  0  0
   18.2419  -11.5402    0.0000 C   0  0  0  0  0  0  0  0  0  0  0  0
   18.2419  -12.9402    0.0000 O   0  0  0  0  0  0  0  0  0  0  0  0
   20.6334  -11.5600    0.0000 O   0  0  0  0  0  0  0  0  0  0  0  0
   20.6334  -12.9600    0.0000 C   0  0  0  0  0  0  0  0  0  0  0  0
   23.1000  -12.9500    0.0000 C   0  0  0  0  0  0  0  0  0  0  0  0
   24.0919  -13.9379    0.0000 O   0  0  0  0  0  0  0  0  0  0  0  0
   20.6334  -14.3600    0.0000 C   0  0  0  0  0  0  0  0  0  0  0  0
   21.8400   -8.0500    0.0000 C   0  0  0  0  0  0  0  0  0  0  0  0
  2  3  2  0
  3  4  1  0
  4  5  2  0
  5  6  1  0
  6  7  2  0
  2  7  1  0
  5  8  1  0
  8  9  2  0
  9 10  1  0
  6 10  1  0
  9 11  1  0
  3 12  1  0
 12 13  1  0
 11 14  1  0
 11 15  2  0
 14 16  1  0
 16 17  2  0
 17 18  1  0
 18 19  2  0
 19 20  1  0
 20 21  2  0
 16 21  1  0
 19 22  1  0
 18 23  1  0
 23 24  1  0
 17 25  1  0
 26 27  2  0
 27 28  1  0
 28 29  2  0
 29 30  1  0
 30 31  2  0
 26 31  1  0
 29 34  1  0
 34 33  2  0
 33 32  1  0
 30 32  1  0
 33 35  1  0
 27 48  1  0
 48 49  1  0
 35 36  1  0
 35 47  2  0
 36 37  1  0
 37 38  2  0
 38 39  1  0
 39 40  2  0
 40 41  1  0
 41 42  2  0
 37 42  1  0
 40 43  1  0
 39 44  1  0
 44 45  1  0
 38 46  1  0
 50 51  1  0
 51 52  1  0
 52 53  1  0
 50 53  1  0
 52 54  1  0
 54 55  1  0
 55 56  1  0
 53 56  1  1
 55 57  1  0
 55 58  1  0
 54 59  1  6
 59 60  1  0
 59 61  2  0
 50 62  1  1
 62 63  1  0
 51 64  2  0
 63 65  2  0
 63 66  1  0
 66 67  1  0
 66 68  1  1
 67 69  2  0
 69 70  1  0
 70 71  2  0
 71 72  1  0
 72 73  2  0
 67 73  1  0
 71 74  1  0
 78 79  1  0
 79 80  1  0
 80 81  1  0
 78 81  1  0
 80 82  1  0
 82 83  1  0
 83 84  1  0
 81 84  1  1
 83 85  1  0
 83 86  1  0
 82 87  1  6
 87 88  1  0
 87 89  2  0
 78 90  1  1
 90 91  1  0
 79 92  2  0
 91 93  2  0
 91 94  1  0
 94 95  1  0
 94 96  1  1
 95 97  2  0
 97 98  1  0
 98 99  2  0
 99100  1  0
100101  2  0
 95101  1  0
 99102  1  0
103104  1  0
106105  1  6
106107  1  0
103107  1  0
108109  1  0
106109  1  0
110111  1  0
111112  2  0
112113  1  0
108113  2  0
109114  1  1
107115  1  6
103116  1  6
111117  1  0
110118  2  0
110119  1  0
104120  1  0
120121  1  1
120122  1  0
119123  1  0
123124  2  0
123125  1  0
125126  1  0
126127  2  0
127128  1  0
126129  1  0
129130  2  0
130131  1  0
131132  2  0
127132  1  0
125133  2  0
129134  1  0
104135  1  1
121136  1  0
136137  1  0
136138  2  0
139140  1  0
140141  1  0
141124  1  0
128139  2  0
128124  1  0
140142  1  0
142143  1  0
143144  1  0
144145  1  0
145146  1  0
140146  1  0
144147  1  0
147148  1  0
148149  1  0
148150  1  0
122151  1  0
151152  1  6
151153  1  0
122154  1  6
152155  1  0
153156  2  0
156157  1  0
131158  1  0
158159  1  0
157159  1  0
132160  1  0
159160  1  0
160161  2  0
159162  1  6
130163  1  0
M  CHG  3   1   2  10  -1  32  -1
M  STY  1   1 MUL
M  SLB  1   1   1
M  SCN  1   1 HT 
M  SAL   1 15   2   3   4   5   6   7   8   9  10  11  12  13  14  15  16
M  SAL   1 15  17  18  19  20  21  22  23  24  25  26  27  28  29  30  31
M  SAL   1 15  32  33  34  35  36  37  38  39  40  41  42  43  44  45  46
M  SAL   1  3  47  48  49
M  SPA   1 15   2   3   4   5   6   7  10   9   8  11  14  16  17  18  19
M  SPA   1  9  20  21  22  23  24  25  15  12  13
M  SDI   1  4   18.2700  -25.0600   18.2700  -17.1500
M  SDI   1  4   37.1700  -17.1500   37.1700  -25.0600
M  SMT   1 2
M  END
