 
     RDKit          2D

134145  0  0  1  0  0  0  0  0999 V2000
   16.5459  -17.5316    0.0000 C   0  0  0  0  0  0  0  0  0  0  0  0
   17.8132  -16.8276    0.0000 C   0  0  0  0  0  0  0  0  0  0  0  0
   15.3491  -16.8276    0.0000 C   0  0  0  0  0  0  0  0  0  0  0  0
   19.0101  -17.4612    0.0000 N   0  0  0  0  0  0  0  0  0  0  0  0
   20.2070  -16.8276    0.0000 C   0  0  0  0  0  0  0  0  0  0  0  0
   20.3478  -15.4195    0.0000 C   0  0  0  0  0  0  0  0  0  0  0  0
   21.6855  -15.1378    0.0000 C   0  0  0  0  0  0  0  0  0  0  0  0
   22.4599  -16.3347    0.0000 C   0  0  0  0  0  0  0  0  0  0  0  0
   21.4743  -17.3908    0.0000 C   0  0  0  0  0  0  0  0  0  0  0  0
   22.3895  -13.9410    0.0000 C   0  0  0  0  0  0  0  0  0  0  0  0
   23.8680  -13.9410    0.0000 C   0  0  0  0  0  0  0  0  0  0  0  0
   24.5721  -15.1378    0.0000 C   0  0  0  0  0  0  0  0  0  0  0  0
   23.8680  -16.3347    0.0000 C   0  0  0  0  0  0  0  0  0  0  0  0
   25.9802  -15.1378    0.0000 C   0  0  0  0  0  0  0  0  0  0  0  0
   26.6842  -13.9410    0.0000 C   0  0  0  0  0  0  0  0  0  0  0  0
   24.5017  -12.7441    0.0000 C   0  0  0  0  0  0  0  0  0  0  0  0
   25.9802  -12.7441    0.0000 C   0  0  0  0  0  0  0  0  0  0  0  0
   14.2226  -17.4612    0.0000 C   0  0  0  0  0  0  0  0  0  0  0  0
   12.9553  -16.7571    0.0000 C   0  0  0  0  0  0  0  0  0  0  0  0
   12.9553  -15.3491    0.0000 C   0  0  0  0  0  0  0  0  0  0  0  0
   14.2226  -14.7154    0.0000 C   0  0  0  0  0  0  0  0  0  0  0  0
   15.3491  -15.3491    0.0000 C   0  0  0  0  0  0  0  0  0  0  0  0
   14.2226  -18.8693    0.0000 C   0  0  0  0  0  0  0  0  0  0  0  0
   12.9553  -19.5733    0.0000 C   0  0  0  0  0  0  0  0  0  0  0  0
   11.7584  -18.8693    0.0000 C   0  0  0  0  0  0  0  0  0  0  0  0
   11.7584  -17.4612    0.0000 N   0  0  0  0  0  0  0  0  0  0  0  0
   10.5615  -19.5733    0.0000 O   0  0  0  0  0  0  0  0  0  0  0  0
   11.7584  -14.7154    0.0000 O   0  0  0  0  0  0  0  0  0  0  0  0
   16.5459  -18.9397    0.0000 O   0  0  0  0  0  0  0  0  0  0  0  0
   27.7900  -18.9700    0.0000 C   0  0  0  0  0  0  0  0  0  0  0  0
   29.0024  -19.6700    0.0000 C   0  0  0  0  0  0  0  0  0  0  0  0
   26.5776  -19.6700    0.0000 O   0  0  0  0  0  0  0  0  0  0  0  0
   27.7900  -17.5700    0.0000 O   0  0  0  0  0  0  0  0  0  0  0  0
   16.5900  -17.5700    0.0000 C   0  0  0  0  0  0  0  0  0  0  0  0
   17.8500  -16.8700    0.0000 C   0  0  0  0  0  0  0  0  0  0  0  0
   15.4000  -16.8700    0.0000 C   0  0  0  0  0  0  0  0  0  0  0  0
   19.0400  -17.5000    0.0000 N   0  0  0  0  0  0  0  0  0  0  0  0
   20.2300  -16.8700    0.0000 C   0  0  0  0  0  0  0  0  0  0  0  0
   20.3700  -15.4700    0.0000 C   0  0  0  0  0  0  0  0  0  0  0  0
   21.7000  -15.1200    0.0000 C   0  0  0  0  0  0  0  0  0  0  0  0
   22.4700  -16.3800    0.0000 C   0  0  0  0  0  0  0  0  0  0  0  0
   21.4900  -17.4300    0.0000 C   0  0  0  0  0  0  0  0  0  0  0  0
   22.4000  -13.9300    0.0000 C   0  0  0  0  0  0  0  0  0  0  0  0
   23.8700  -13.9300    0.0000 C   0  0  0  0  0  0  0  0  0  0  0  0
   24.5700  -15.1200    0.0000 C   0  0  0  0  0  0  0  0  0  0  0  0
   23.8700  -16.3800    0.0000 C   0  0  0  0  0  0  0  0  0  0  0  0
   25.9700  -15.1200    0.0000 C   0  0  0  0  0  0  0  0  0  0  0  0
   26.6700  -13.9300    0.0000 C   0  0  0  0  0  0  0  0  0  0  0  0
   24.5000  -12.7400    0.0000 C   0  0  0  0  0  0  0  0  0  0  0  0
   25.9700  -12.7400    0.0000 C   0  0  0  0  0  0  0  0  0  0  0  0
   14.2100  -17.5000    0.0000 C   0  0  0  0  0  0  0  0  0  0  0  0
   12.9500  -16.8000    0.0000 C   0  0  0  0  0  0  0  0  0  0  0  0
   12.9500  -15.4000    0.0000 C   0  0  0  0  0  0  0  0  0  0  0  0
   14.2100  -14.7000    0.0000 C   0  0  0  0  0  0  0  0  0  0  0  0
   15.4000  -15.4000    0.0000 C   0  0  0  0  0  0  0  0  0  0  0  0
   14.2100  -18.9000    0.0000 C   0  0  0  0  0  0  0  0  0  0  0  0
   12.9500  -19.6000    0.0000 C   0  0  0  0  0  0  0  0  0  0  0  0
   11.7600  -18.9000    0.0000 C   0  0  0  0  0  0  0  0  0  0  0  0
   11.7600  -17.5000    0.0000 N   0  0  0  0  0  0  0  0  0  0  0  0
   10.5700  -19.6000    0.0000 O   0  0  0  0  0  0  0  0  0  0  0  0
   11.7600  -14.7000    0.0000 O   0  0  0  0  0  0  0  0  0  0  0  0
   16.5900  -18.9700    0.0000 O   0  0  0  0  0  0  0  0  0  0  0  0
   12.1100  -17.5700    0.0000 C   0  0  0  0  0  0  0  0  0  0  0  0
   13.3700  -16.8700    0.0000 C   0  0  0  0  0  0  0  0  0  0  0  0
   10.9200  -16.8700    0.0000 C   0  0  0  0  0  0  0  0  0  0  0  0
   14.5600  -17.5000    0.0000 N   0  0  0  0  0  0  0  0  0  0  0  0
   15.7500  -16.8700    0.0000 C   0  0  0  0  0  0  0  0  0  0  0  0
   15.8900  -15.4700    0.0000 C   0  0  0  0  0  0  0  0  0  0  0  0
   17.2200  -15.1200    0.0000 C   0  0  0  0  0  0  0  0  0  0  0  0
   17.9900  -16.3800    0.0000 C   0  0  0  0  0  0  0  0  0  0  0  0
   17.0100  -17.4300    0.0000 C   0  0  0  0  0  0  0  0  0  0  0  0
   17.9200  -13.9300    0.0000 C   0  0  0  0  0  0  0  0  0  0  0  0
   19.3900  -13.9300    0.0000 C   0  0  0  0  0  0  0  0  0  0  0  0
   20.0900  -15.1200    0.0000 C   0  0  0  0  0  0  0  0  0  0  0  0
   19.3900  -16.3800    0.0000 C   0  0  0  0  0  0  0  0  0  0  0  0
   21.4200  -15.1200    0.0000 C   0  0  0  0  0  0  0  0  0  0  0  0
   22.1200  -13.9300    0.0000 C   0  0  0  0  0  0  0  0  0  0  0  0
   20.0200  -12.8100    0.0000 C   0  0  0  0  0  0  0  0  0  0  0  0
   21.4200  -12.8100    0.0000 C   0  0  0  0  0  0  0  0  0  0  0  0
    9.8000  -17.5000    0.0000 C   0  0  0  0  0  0  0  0  0  0  0  0
    8.5400  -16.8000    0.0000 C   0  0  0  0  0  0  0  0  0  0  0  0
    8.5400  -15.4000    0.0000 C   0  0  0  0  0  0  0  0  0  0  0  0
    9.8000  -14.7000    0.0000 C   0  0  0  0  0  0  0  0  0  0  0  0
   10.9200  -15.4000    0.0000 C   0  0  0  0  0  0  0  0  0  0  0  0
    9.8000  -18.9000    0.0000 C   0  0  0  0  0  0  0  0  0  0  0  0
    8.5400  -19.6000    0.0000 C   0  0  0  0  0  0  0  0  0  0  0  0
    7.3500  -18.9000    0.0000 C   0  0  0  0  0  0  0  0  0  0  0  0
    7.3500  -17.5000    0.0000 N   0  0  0  0  0  0  0  0  0  0  0  0
    6.1600  -19.6000    0.0000 O   0  0  0  0  0  0  0  0  0  0  0  0
    7.3500  -14.7000    0.0000 O   0  0  0  0  0  0  0  0  0  0  0  0
   12.1100  -18.9700    0.0000 O   0  0  0  0  0  0  0  0  0  0  0  0
   23.7300  -16.5200    0.0000 C   0  0  0  0  0  0  0  0  0  0  0  0
   25.4800  -16.5200    0.0000 C   0  0  0  0  0  0  0  0  0  0  0  0
   23.0300  -17.7100    0.0000 C   0  0  0  0  0  0  0  0  0  0  0  0
   26.1800  -17.7100    0.0000 C   0  0  0  0  0  0  0  0  0  0  0  0
   27.5100  -17.7100    0.0000 O   0  0  0  0  0  0  0  0  0  0  0  0
   21.6300  -17.7100    0.0000 O   0  0  0  0  0  0  0  0  0  0  0  0
   23.7300  -18.9000    0.0000 O   0  0  0  0  0  0  0  0  0  0  0  0
   25.4800  -18.9000    0.0000 O   0  0  0  0  0  0  0  0  0  0  0  0
   33.4094  -17.0168    0.0000 C   0  0  0  0  0  0  0  0  0  0  0  0
   32.2455  -17.6911    0.0000 C   0  0  0  0  0  0  0  0  0  0  0  0
   34.5745  -17.6967    0.0000 C   0  0  0  0  0  0  0  0  0  0  0  0
   35.2692  -15.9227    0.0000 O   0  0  0  0  0  0  0  0  0  0  0  0
   33.3979  -15.6626    0.0000 C   0  0  0  0  0  0  0  0  0  0  0  0
   32.2455  -19.0336    0.0000 C   0  0  0  0  0  0  0  0  0  0  0  0
   31.0814  -17.0111    0.0000 C   0  0  0  0  0  0  0  0  0  0  0  0
   32.2396  -16.3195    0.0000 C   0  0  0  0  0  0  0  0  0  0  0  0
   34.5676  -19.0395    0.0000 C   0  0  0  0  0  0  0  0  0  0  0  0
   35.8931  -18.0539    0.0000 C   0  0  0  0  0  0  0  0  0  0  0  0
   36.6407  -15.9227    0.0000 C   0  0  0  0  0  0  0  0  0  0  0  0
   34.5851  -14.9768    0.0000 C   0  0  0  0  0  0  0  0  0  0  0  0
   32.2109  -14.9883    0.0000 O   0  0  0  0  0  0  0  0  0  0  0  0
   31.0758  -19.7079    0.0000 C   0  0  0  0  0  0  0  0  0  0  0  0
   29.9116  -17.6852    0.0000 C   0  0  0  0  0  0  0  0  0  0  0  0
   37.3207  -14.7357    0.0000 C   0  0  0  0  0  0  0  0  0  0  0  0
   37.3207  -17.1098    0.0000 O   0  0  0  0  0  0  0  0  0  0  0  0
   34.5736  -13.6053    0.0000 Cl  0  0  0  0  0  0  0  0  0  0  0  0
   29.9060  -19.0336    0.0000 C   0  0  0  0  0  0  0  0  0  0  0  0
   31.0814  -21.0563    0.0000 C   0  0  0  0  0  0  0  0  0  0  0  0
   28.7362  -16.9995    0.0000 O   0  0  0  0  0  0  0  0  0  0  0  0
   38.6969  -14.7425    0.0000 C   0  0  0  0  0  0  0  0  0  0  0  0
   36.9040  -13.4470    0.0000 O   0  0  0  0  0  0  0  0  0  0  0  0
   28.7418  -19.7079    0.0000 C   0  0  0  0  0  0  0  0  0  0  0  0
   29.9001  -20.3763    0.0000 Cl  0  0  0  0  0  0  0  0  0  0  0  0
   29.9116  -21.7363    0.0000 C   0  0  0  0  0  0  0  0  0  0  0  0
   39.1183  -13.4369    0.0000 C   0  0  0  0  0  0  0  0  0  0  0  0
   38.0098  -12.6305    0.0000 C   0  0  0  0  0  0  0  0  0  0  0  0
   28.7418  -21.0620    0.0000 C   0  0  0  0  0  0  0  0  0  0  0  0
   27.5721  -19.0336    0.0000 C   0  0  0  0  0  0  0  0  0  0  0  0
   28.7303  -18.3595    0.0000 C   0  0  0  0  0  0  0  0  0  0  0  0
   27.5721  -21.7363    0.0000 C   0  0  0  0  0  0  0  0  0  0  0  0
   26.4023  -19.7079    0.0000 C   0  0  0  0  0  0  0  0  0  0  0  0
   26.4023  -21.0620    0.0000 C   0  0  0  0  0  0  0  0  0  0  0  0
   25.2268  -21.7305    0.0000 O   0  0  0  0  0  0  0  0  0  0  0  0
  1  2  1  0
  1  3  1  0
  2  4  1  0
  4  5  1  0
  5  6  1  0
  6  7  1  0
  7  8  2  0
  8  9  1  0
  5  9  1  0
  7 10  1  0
 10 11  2  0
 11 12  1  0
 12 13  2  0
  8 13  1  0
 12 14  1  0
 14 15  1  0
 11 16  1  0
 16 17  1  0
  3 18  2  0
 18 19  1  0
 19 20  2  0
 20 21  1  0
 21 22  2  0
  3 22  1  0
 18 23  1  0
 23 24  2  0
 24 25  1  0
 25 26  1  0
 19 26  1  0
 25 27  2  0
 20 28  1  0
  1 29  1  6
 30 31  1  0
 30 32  1  0
 30 33  2  0
 34 35  1  0
 34 36  1  0
 35 37  1  0
 37 38  1  0
 38 39  1  0
 39 40  1  0
 40 41  2  0
 41 42  1  0
 38 42  1  0
 40 43  1  0
 43 44  2  0
 44 45  1  0
 45 46  2  0
 41 46  1  0
 45 47  1  0
 47 48  1  0
 44 49  1  0
 49 50  1  0
 36 51  2  0
 51 52  1  0
 52 53  2  0
 53 54  1  0
 54 55  2  0
 36 55  1  0
 51 56  1  0
 56 57  2  0
 57 58  1  0
 58 59  1  0
 52 59  1  0
 58 60  2  0
 53 61  1  0
 34 62  1  6
 63 64  1  0
 63 65  1  0
 64 66  1  0
 66 67  1  0
 67 68  1  0
 68 69  1  0
 69 70  2  0
 70 71  1  0
 67 71  1  0
 69 72  1  0
 72 73  2  0
 73 74  1  0
 74 75  2  0
 70 75  1  0
 74 76  1  0
 76 77  1  0
 73 78  1  0
 78 79  1  0
 65 80  2  0
 80 81  1  0
 81 82  2  0
 82 83  1  0
 83 84  2  0
 65 84  1  0
 80 85  1  0
 85 86  2  0
 86 87  1  0
 87 88  1  0
 81 88  1  0
 87 89  2  0
 82 90  1  0
 63 91  1  6
 92 93  2  0
 92 94  1  0
 93 95  1  0
 95 96  2  0
 94 97  1  0
 94 98  2  0
 95 99  1  0
100101  1  0
100102  1  0
100103  1  6
100104  1  0
101105  1  0
101106  1  0
101107  1  1
102108  1  0
102109  1  6
103110  1  0
104111  1  0
104112  2  0
105113  1  0
106114  1  0
110115  1  0
110116  2  0
111117  1  0
113118  1  0
113119  1  6
114120  1  1
115121  2  0
115122  1  0
118123  1  0
118124  1  6
119125  1  0
121126  1  0
122127  1  0
123128  1  0
123129  1  0
123130  1  1
128131  2  0
129132  2  0
131133  1  0
133134  2  0
105108  1  1
114118  1  0
125128  1  0
126127  2  0
132133  1  0
M  END
