 
     RDKit          2D

 92 96  0  0  1  0  0  0  0  0999 V2000
   23.0773  -15.4815    0.0000 C   0  0  0  0  0  0  0  0  0  0  0  0
   23.0773  -14.0754    0.0000 C   0  0  0  0  0  0  0  0  0  0  0  0
   21.8117  -16.1847    0.0000 C   0  0  0  0  0  0  0  0  0  0  0  0
   20.6165  -15.4815    0.0000 O   0  0  0  0  0  0  0  0  0  0  0  0
   21.8117  -17.5908    0.0000 O   0  0  0  0  0  0  0  0  0  0  0  0
   19.4214  -16.1847    0.0000 C   0  0  0  0  0  0  0  0  0  0  0  0
   18.1559  -15.4815    0.0000 C   0  0  0  0  0  0  0  0  0  0  0  0
   19.4214  -17.6611    0.0000 C   0  0  0  0  0  0  0  0  0  0  0  0
   16.8903  -16.1847    0.0000 C   0  0  0  0  0  0  0  0  0  0  0  0
   18.5777  -16.7471    0.0000 C   0  0  0  0  0  0  0  0  0  0  0  0
   18.1559  -18.3642    0.0000 N   0  0  0  0  0  0  0  0  0  0  0  0
   16.8903  -17.5908    0.0000 C   0  0  0  0  0  0  0  0  0  0  0  0
   17.7339  -16.9580    0.0000 C   0  0  0  0  0  0  0  0  0  0  0  0
   24.2725  -14.7785    0.0000 O   0  0  0  0  0  0  0  0  0  0  0  0
   18.1559  -19.7703    0.0000 C   0  0  0  0  0  0  0  0  0  0  0  0
   24.2149  -13.2489    0.0000 C   0  0  0  0  0  0  0  0  0  0  0  0
   23.7804  -11.9116    0.0000 C   0  0  0  0  0  0  0  0  0  0  0  0
   22.3743  -11.9116    0.0000 C   0  0  0  0  0  0  0  0  0  0  0  0
   21.9398  -13.2489    0.0000 S   0  0  0  0  0  0  0  0  0  0  0  0
   16.9381  -20.4734    0.0000 C   0  0  0  0  0  0  0  0  0  0  0  0
   15.7373  -19.7799    0.0000 C   0  0  0  0  0  0  0  0  0  0  0  0
   14.5447  -20.4684    0.0000 O   0  0  0  0  0  0  0  0  0  0  0  0
   13.3483  -19.7774    0.0000 C   0  0  0  0  0  0  0  0  0  0  0  0
   13.3483  -18.3644    0.0000 C   0  0  0  0  0  0  0  0  0  0  0  0
   12.1306  -17.6613    0.0000 C   0  0  0  0  0  0  0  0  0  0  0  0
   10.9129  -18.3644    0.0000 C   0  0  0  0  0  0  0  0  0  0  0  0
   10.9128  -19.7773    0.0000 C   0  0  0  0  0  0  0  0  0  0  0  0
   12.1305  -20.4805    0.0000 C   0  0  0  0  0  0  0  0  0  0  0  0
   24.0532  -16.7238    0.0000 C   0  0  0  0  0  0  0  0  0  0  0  0
   24.5155  -18.0413    0.0000 C   0  0  0  0  0  0  0  0  0  0  0  0
   25.9112  -18.0087    0.0000 C   0  0  0  0  0  0  0  0  0  0  0  0
   26.3117  -16.6712    0.0000 C   0  0  0  0  0  0  0  0  0  0  0  0
   25.1634  -15.8771    0.0000 S   0  0  0  0  0  0  0  0  0  0  0  0
   11.7579  -13.5833    0.0000 Br  0  0  0  0  0  0  0  0  0  0  0  0
   42.5268  -20.4767    0.0000 C   0  0  0  0  0  0  0  0  0  0  0  0
   43.7345  -21.1769    0.0000 C   0  0  0  0  0  0  0  0  0  0  0  0
   41.3191  -21.1769    0.0000 O   0  0  0  0  0  0  0  0  0  0  0  0
   42.5268  -19.0825    0.0000 O   0  0  0  0  0  0  0  0  0  0  0  0
   44.9479  -20.4767    0.0000 C   0  0  0  0  0  0  0  0  0  0  0  0
   46.1556  -21.1769    0.0000 C   0  0  0  0  0  0  0  0  0  0  0  0
   47.3633  -20.4767    0.0000 O   0  0  0  0  0  0  0  0  0  0  0  0
   46.1556  -22.5713    0.0000 O   0  0  0  0  0  0  0  0  0  0  0  0
   24.5700  -21.2100    0.0000 C   0  0  0  0  0  0  0  0  0  0  0  0
   23.3800  -21.9100    0.0000 C   0  0  0  0  0  0  0  0  0  0  0  0
   24.5700  -19.8100    0.0000 C   0  0  0  0  0  0  0  0  0  0  0  0
   25.7600  -21.9100    0.0000 C   0  0  0  0  0  0  0  0  0  0  0  0
   22.1200  -21.2100    0.0000 C   0  0  0  0  0  0  0  0  0  0  0  0
   23.3800  -19.1100    0.0000 C   0  0  0  0  0  0  0  0  0  0  0  0
   27.0200  -21.2100    0.0000 C   0  0  0  0  0  0  0  0  0  0  0  0
   25.7600  -23.3100    0.0000 O   0  0  0  0  0  0  0  0  0  0  0  0
   22.1200  -19.8100    0.0000 C   0  0  0  0  0  0  0  0  0  0  0  0
   20.9300  -21.9100    0.0000 N   0  0  0  0  0  0  0  0  0  0  0  0
   28.2100  -21.9100    0.0000 N   0  0  0  0  0  0  0  0  0  0  0  0
   20.9300  -19.1100    0.0000 O   0  0  0  0  0  0  0  0  0  0  0  0
   19.7400  -21.2100    0.0000 C   0  0  0  0  0  0  0  0  0  0  0  0
   29.4000  -21.2100    0.0000 C   0  0  0  0  0  0  0  0  0  0  0  0
   18.4800  -21.9100    0.0000 O   0  0  0  0  0  0  0  0  0  0  0  0
   30.5900  -21.9100    0.0000 C   0  0  0  0  0  0  0  0  0  0  0  0
   29.4000  -19.8100    0.0000 C   0  0  0  0  0  0  0  0  0  0  0  0
   31.8500  -21.2100    0.0000 C   0  0  0  0  0  0  0  0  0  0  0  0
   31.8500  -19.8100    0.0000 C   0  0  0  0  0  0  0  0  0  0  0  0
   33.0400  -21.9100    0.0000 C   0  0  0  0  0  0  0  0  0  0  0  0
   33.0400  -19.1100    0.0000 C   0  0  0  0  0  0  0  0  0  0  0  0
   34.2300  -21.2100    0.0000 C   0  0  0  0  0  0  0  0  0  0  0  0
   34.2300  -19.8100    0.0000 C   0  0  0  0  0  0  0  0  0  0  0  0
   35.4900  -19.0400    0.0000 O   0  0  0  0  0  0  0  0  0  0  0  0
   36.6800  -19.7400    0.0000 C   0  0  0  0  0  0  0  0  0  0  0  0
   24.5700  -21.2100    0.0000 C   0  0  0  0  0  0  0  0  0  0  0  0
   23.3800  -21.9100    0.0000 C   0  0  0  0  0  0  0  0  0  0  0  0
   22.1200  -21.2100    0.0000 C   0  0  0  0  0  0  0  0  0  0  0  0
   22.1200  -19.8100    0.0000 C   0  0  0  0  0  0  0  0  0  0  0  0
   20.9300  -19.1100    0.0000 O   0  0  0  0  0  0  0  0  0  0  0  0
   23.3800  -19.1100    0.0000 C   0  0  0  0  0  0  0  0  0  0  0  0
   24.5700  -19.8100    0.0000 C   0  0  0  0  0  0  0  0  0  0  0  0
   20.9300  -21.9100    0.0000 N   0  0  0  0  0  0  0  0  0  0  0  0
   19.7400  -21.2100    0.0000 C   0  0  0  0  0  0  0  0  0  0  0  0
   18.4800  -21.9100    0.0000 O   0  0  0  0  0  0  0  0  0  0  0  0
   25.7600  -21.9100    0.0000 C   0  0  0  0  0  0  0  0  0  0  0  0
   27.0200  -21.2100    0.0000 C   0  0  0  0  0  0  0  0  0  0  0  0
   28.2100  -21.9100    0.0000 N   0  0  0  0  0  0  0  0  0  0  0  0
   29.4000  -21.2100    0.0000 C   0  0  0  0  0  0  0  0  0  0  0  0
   30.5900  -21.9100    0.0000 C   0  0  0  0  0  0  0  0  0  0  0  0
   31.8500  -21.2100    0.0000 C   0  0  0  0  0  0  0  0  0  0  0  0
   31.8500  -19.8100    0.0000 C   0  0  0  0  0  0  0  0  0  0  0  0
   33.0400  -19.1100    0.0000 C   0  0  0  0  0  0  0  0  0  0  0  0
   34.2300  -19.8100    0.0000 C   0  0  0  0  0  0  0  0  0  0  0  0
   35.4900  -19.0400    0.0000 O   0  0  0  0  0  0  0  0  0  0  0  0
   36.6800  -19.7400    0.0000 C   0  0  0  0  0  0  0  0  0  0  0  0
   34.2300  -21.2100    0.0000 C   0  0  0  0  0  0  0  0  0  0  0  0
   33.0400  -21.9100    0.0000 C   0  0  0  0  0  0  0  0  0  0  0  0
   29.4000  -19.8100    0.0000 C   0  0  0  0  0  0  0  0  0  0  0  0
   25.7600  -23.3100    0.0000 O   0  0  0  0  0  0  0  0  0  0  0  0
  1  2  1  0
  1  3  1  0
  3  4  1  0
  3  5  2  0
  6  4  1  1
  6  7  1  0
  6  8  1  0
  7  9  1  0
  7 10  1  0
  8 11  1  0
  9 12  1  0
 10 13  1  0
 11 12  1  0
 11 13  1  0
  1 14  1  0
 11 15  1  0
  2 16  2  0
 16 17  1  0
 17 18  2  0
 18 19  1  0
  2 19  1  0
 15 20  1  0
 20 21  1  0
 21 22  1  0
 22 23  1  0
 23 24  2  0
 24 25  1  0
 25 26  2  0
 26 27  1  0
 27 28  2  0
 23 28  1  0
 29 30  2  0
 30 31  1  0
 31 32  2  0
 32 33  1  0
 29 33  1  0
  1 29  1  0
 35 36  1  0
 35 37  1  0
 35 38  2  0
 36 39  2  0
 39 40  1  0
 40 41  1  0
 40 42  2  0
 43 44  2  0
 43 45  1  0
 43 46  1  0
 44 47  1  0
 45 48  2  0
 46 49  1  0
 46 50  1  0
 47 51  2  0
 47 52  1  0
 49 53  1  0
 51 54  1  0
 52 55  1  0
 53 56  1  0
 55 57  2  0
 56 58  1  0
 56 59  1  0
 58 60  1  0
 60 61  2  0
 60 62  1  0
 61 63  1  0
 62 64  2  0
 63 65  2  0
 65 66  1  0
 66 67  1  0
 48 51  1  0
 64 65  1  0
 68 69  2  0
 68 74  1  0
 68 78  1  0
 69 70  1  0
 74 73  2  0
 78 79  1  0
 78 92  1  0
 70 71  2  0
 70 75  1  0
 79 80  1  0
 71 72  1  0
 75 76  1  0
 80 81  1  0
 76 77  2  0
 81 82  1  0
 81 91  1  0
 82 83  1  0
 83 84  2  0
 83 90  1  0
 84 85  1  0
 90 89  2  0
 85 86  2  0
 86 87  1  0
 87 88  1  0
 73 71  1  0
 89 86  1  0
M  CHG  2  11   1  34  -1
M  END
