124220636
     RDKit          2D

101105  0  0  1  0  0  0  0  0999 V2000
    2.0000    2.0995    0.0000 Cu  0  0  0  0  0 15  0  0  0  0  0  0
   12.2670    0.1550    0.0000 S   0  0  0  0  0  0  0  0  0  0  0  0
   11.4009   -0.3450    0.0000 S   0  0  0  0  0  0  0  0  0  0  0  0
   10.5349    3.1550    0.0000 O   0  0  0  0  0  0  0  0  0  0  0  0
    9.4197    2.0500    0.0000 O   0  0  0  0  0  0  0  0  0  0  0  0
    9.6458    0.3328    0.0000 O   0  0  0  0  0  0  0  0  0  0  0  0
    4.7446    7.3545    0.0000 O   0  0  0  0  0  0  0  0  0  0  0  0
    4.5186    5.6373    0.0000 O   0  0  0  0  0  0  0  0  0  0  0  0
    2.7071    2.8066    0.0000 O   0  0  0  0  0  0  0  0  0  0  0  0
    3.9318    1.5819    0.0000 O   0  0  0  0  0  0  0  0  0  0  0  0
   14.8650   -1.3450    0.0000 O   0  0  0  0  0  0  0  0  0  0  0  0
   13.9990   -1.8450    0.0000 O   0  0  0  0  0  0  0  0  0  0  0  0
   11.4009    2.6550    0.0000 O   0  0  0  0  0  0  0  0  0  0  0  0
   14.8650   -0.3450    0.0000 O   0  0  0  0  0  0  0  0  0  0  0  0
   13.1330   -1.3450    0.0000 O   0  0  0  0  0  0  0  0  0  0  0  0
   13.9990    0.1550    0.0000 O   0  0  0  0  0  0  0  0  0  0  0  0
   11.4009   -4.3450    0.0000 O   0  0  0  0  0  0  0  0  0  0  0  0
    9.6689   -0.3450    0.0000 O   0  0  0  0  0  0  0  0  0  0  0  0
    6.2048   -1.3450    0.0000 O   0  0  0  0  0  0  0  0  0  0  0  0
   16.5971    5.6550    0.0000 O   0  0  0  0  0  0  0  0  0  0  0  0
    7.0708    0.1550    0.0000 O   0  0  0  0  0  0  0  0  0  0  0  0
    8.8029    0.1550    0.0000 O   0  0  0  0  0  0  0  0  0  0  0  0
    8.8029    4.1550    0.0000 N   0  0  0  0  0  0  0  0  0  0  0  0
    7.4368    1.7890    0.0000 N   0  0  0  0  0  0  0  0  0  0  0  0
    6.5015    5.3762    0.0000 N   0  0  0  0  0  0  0  0  0  0  0  0
    5.3461    2.9961    0.0000 N   0  0  0  0  0  0  0  0  0  0  0  0
   11.4009    4.6550    0.0000 N   0  0  0  0  0  0  0  0  0  0  0  0
   15.7311   -2.8450    0.0000 N   0  0  0  0  0  0  0  0  0  0  0  0
   16.5971   -0.3450    0.0000 N   0  0  0  0  0  0  0  0  0  0  0  0
   13.1330   -3.3450    0.0000 N   0  0  0  0  0  0  0  0  0  0  0  0
   13.1330    2.6550    0.0000 N   0  0  0  0  0  0  0  0  0  0  0  0
   14.8650    1.6550    0.0000 N   0  0  0  0  0  0  0  0  0  0  0  0
   19.4040   -0.1471    0.0000 N   0  0  0  0  0  0  0  0  0  0  0  0
   10.5349   -2.8450    0.0000 N   0  0  0  0  0  0  0  0  0  0  0  0
   16.5971   -7.3450    0.0000 N   0  0  0  0  0  0  0  0  0  0  0  0
    8.8029   -1.8450    0.0000 N   0  0  0  0  0  0  0  0  0  0  0  0
    8.8029    3.1550    0.0000 C   0  0  0  0  0  0  0  0  0  0  0  0
    7.9368    4.6550    0.0000 C   0  0  0  0  0  0  0  0  0  0  0  0
    7.9368    2.6550    0.0000 C   0  0  0  0  0  0  0  0  0  0  0  0
    7.5015    5.3762    0.0000 C   0  0  0  0  0  0  0  0  0  0  0  0
    6.4709    1.5302    0.0000 C   0  0  0  0  0  0  0  0  0  0  0  0
    5.7944    4.6691    0.0000 C   0  0  0  0  0  0  0  0  0  0  0  0
    5.6049    2.0302    0.0000 C   0  0  0  0  0  0  0  0  0  0  0  0
    6.0532    3.7032    0.0000 C   0  0  0  0  0  0  0  0  0  0  0  0
    9.6689    4.6550    0.0000 C   0  0  0  0  0  0  0  0  0  0  0  0
    8.0456    0.9956    0.0000 C   0  0  0  0  0  0  0  0  0  0  0  0
    6.1188    6.3001    0.0000 C   0  0  0  0  0  0  0  0  0  0  0  0
    4.3801    3.2549    0.0000 C   0  0  0  0  0  0  0  0  0  0  0  0
   10.5349    4.1550    0.0000 C   0  0  0  0  0  0  0  0  0  0  0  0
   12.2670    4.1550    0.0000 C   0  0  0  0  0  0  0  0  0  0  0  0
   14.8650   -3.3450    0.0000 C   0  0  0  0  0  0  0  0  0  0  0  0
   16.5971   -1.3450    0.0000 C   0  0  0  0  0  0  0  0  0  0  0  0
   14.8650   -4.3450    0.0000 C   0  0  0  0  0  0  0  0  0  0  0  0
   17.4631   -1.8450    0.0000 C   0  0  0  0  0  0  0  0  0  0  0  0
    9.0370    1.1262    0.0000 C   0  0  0  0  0  0  0  0  0  0  0  0
    5.1273    6.4306    0.0000 C   0  0  0  0  0  0  0  0  0  0  0  0
   15.7311   -4.8450    0.0000 C   0  0  0  0  0  0  0  0  0  0  0  0
    3.6730    2.5478    0.0000 C   0  0  0  0  0  0  0  0  0  0  0  0
   13.1330    4.6550    0.0000 C   0  0  0  0  0  0  0  0  0  0  0  0
   15.7311   -1.8450    0.0000 C   0  0  0  0  0  0  0  0  0  0  0  0
   15.7311    1.1550    0.0000 C   0  0  0  0  0  0  0  0  0  0  0  0
   18.3291   -1.3450    0.0000 C   0  0  0  0  0  0  0  0  0  0  0  0
   12.2670    3.1550    0.0000 C   0  0  0  0  0  0  0  0  0  0  0  0
   13.9990   -2.8450    0.0000 C   0  0  0  0  0  0  0  0  0  0  0  0
   13.1330    1.6550    0.0000 C   0  0  0  0  0  0  0  0  0  0  0  0
   12.2670   -2.8450    0.0000 C   0  0  0  0  0  0  0  0  0  0  0  0
   15.7311   -5.8450    0.0000 C   0  0  0  0  0  0  0  0  0  0  0  0
   15.7311    0.1550    0.0000 C   0  0  0  0  0  0  0  0  0  0  0  0
   19.2369   -1.7501    0.0000 C   0  0  0  0  0  0  0  0  0  0  0  0
   16.5971    1.6550    0.0000 C   0  0  0  0  0  0  0  0  0  0  0  0
   12.2670   -1.8450    0.0000 C   0  0  0  0  0  0  0  0  0  0  0  0
   13.9990    1.1550    0.0000 C   0  0  0  0  0  0  0  0  0  0  0  0
   13.1330    5.6550    0.0000 C   0  0  0  0  0  0  0  0  0  0  0  0
   18.4322   -0.3563    0.0000 C   0  0  0  0  0  0  0  0  0  0  0  0
   19.9048   -1.0058    0.0000 C   0  0  0  0  0  0  0  0  0  0  0  0
   12.2670    1.1550    0.0000 C   0  0  0  0  0  0  0  0  0  0  0  0
   11.4009   -3.3450    0.0000 C   0  0  0  0  0  0  0  0  0  0  0  0
   16.5971   -6.3450    0.0000 C   0  0  0  0  0  0  0  0  0  0  0  0
   16.5971    2.6550    0.0000 C   0  0  0  0  0  0  0  0  0  0  0  0
   10.5349   -1.8450    0.0000 C   0  0  0  0  0  0  0  0  0  0  0  0
   19.5476   -2.7006    0.0000 C   0  0  0  0  0  0  0  0  0  0  0  0
   11.4009   -2.3450    0.0000 C   0  0  0  0  0  0  0  0  0  0  0  0
   20.8833   -1.2120    0.0000 C   0  0  0  0  0  0  0  0  0  0  0  0
   12.2670    6.1550    0.0000 C   0  0  0  0  0  0  0  0  0  0  0  0
   13.9990    6.1550    0.0000 C   0  0  0  0  0  0  0  0  0  0  0  0
   11.4009   -1.3450    0.0000 C   0  0  0  0  0  0  0  0  0  0  0  0
   20.5261   -2.9068    0.0000 C   0  0  0  0  0  0  0  0  0  0  0  0
   21.1939   -2.1626    0.0000 C   0  0  0  0  0  0  0  0  0  0  0  0
    9.6689   -1.3450    0.0000 C   0  0  0  0  0  0  0  0  0  0  0  0
   15.7311    3.1550    0.0000 C   0  0  0  0  0  0  0  0  0  0  0  0
   17.4631    3.1550    0.0000 C   0  0  0  0  0  0  0  0  0  0  0  0
   12.2670    7.1550    0.0000 C   0  0  0  0  0  0  0  0  0  0  0  0
   13.9990    7.1550    0.0000 C   0  0  0  0  0  0  0  0  0  0  0  0
    7.9368   -1.3450    0.0000 C   0  0  0  0  0  0  0  0  0  0  0  0
   13.1330    7.6550    0.0000 C   0  0  0  0  0  0  0  0  0  0  0  0
   15.7311    4.1550    0.0000 C   0  0  0  0  0  0  0  0  0  0  0  0
   17.4631    4.1550    0.0000 C   0  0  0  0  0  0  0  0  0  0  0  0
    7.0708   -1.8450    0.0000 C   0  0  0  0  0  0  0  0  0  0  0  0
   16.5971    4.6550    0.0000 C   0  0  0  0  0  0  0  0  0  0  0  0
    7.9368   -0.3450    0.0000 C   0  0  0  0  0  0  0  0  0  0  0  0
    7.0708   -2.8450    0.0000 C   0  0  0  0  0  0  0  0  0  0  0  0
  2  3  1  0
  2 76  1  0
  3 86  1  0
  4 49  2  0
  5 55  1  0
  6 55  2  0
  7 56  1  0
  8 56  2  0
  9 58  1  0
 10 58  2  0
 11 60  2  0
 12 64  2  0
 13 63  2  0
 14 68  2  0
 71 15  1  0
 16 72  2  0
 17 77  2  0
 18 89  2  0
 98 19  1  0
 20 99  1  0
 21100  1  0
 22100  2  0
 23 37  1  0
 23 38  1  0
 23 45  1  0
 24 39  1  0
 24 41  1  0
 24 46  1  0
 25 40  1  0
 25 42  1  0
 25 47  1  0
 26 43  1  0
 26 44  1  0
 26 48  1  0
 27 49  1  0
 50 27  1  0
 28 51  1  0
 28 60  1  0
 29 52  1  0
 29 68  1  0
 30 64  1  0
 66 30  1  6
 31 63  1  0
 65 31  1  6
 32 61  1  0
 32 72  1  0
 33 74  1  0
 33 75  1  0
 34 77  1  0
 34 80  1  0
 35 78  1  0
 36 89  1  0
 94 36  1  1
 37 39  1  0
 38 40  1  0
 41 43  1  0
 42 44  1  0
 45 49  1  0
 46 55  1  0
 47 56  1  0
 48 58  1  0
 50 59  1  6
 50 63  1  0
 51 53  1  1
 51 64  1  0
 52 54  1  6
 52 60  1  0
 53 57  1  0
 54 62  1  0
 57 67  1  0
 59 73  1  0
 61 68  1  0
 61 70  1  1
 62 69  1  0
 62 74  2  0
 65 72  1  0
 65 76  1  0
 66 71  1  0
 66 77  1  0
 67 78  1  0
 69 75  2  0
 69 81  1  0
 70 79  1  0
 71 82  1  1
 73 84  2  0
 73 85  1  0
 75 83  1  0
 79 90  2  0
 79 91  1  0
 80 86  1  0
 80 89  1  6
 81 87  2  0
 83 88  2  0
 84 92  1  0
 85 93  2  0
 87 88  1  0
 90 96  1  0
 91 97  2  0
 92 95  2  0
 93 95  1  0
 94 98  1  0
 94100  1  0
 96 99  2  0
 97 99  1  0
 98101  1  1
M  CHG  3   1   2   7  -1   9  -1
M  ISO  1   1  64
M  END
