 
     RDKit          2D

 92 99  0  0  1  0  0  0  0  0999 V2000
   16.5459  -17.5316    0.0000 C   0  0  0  0  0  0  0  0  0  0  0  0
   17.8132  -16.8276    0.0000 C   0  0  0  0  0  0  0  0  0  0  0  0
   15.3491  -16.8276    0.0000 C   0  0  0  0  0  0  0  0  0  0  0  0
   19.0101  -17.4612    0.0000 N   0  0  0  0  0  0  0  0  0  0  0  0
   20.2070  -16.8276    0.0000 C   0  0  0  0  0  0  0  0  0  0  0  0
   20.3478  -15.4195    0.0000 C   0  0  0  0  0  0  0  0  0  0  0  0
   21.6855  -15.1378    0.0000 C   0  0  0  0  0  0  0  0  0  0  0  0
   22.4599  -16.3347    0.0000 C   0  0  0  0  0  0  0  0  0  0  0  0
   21.4743  -17.3908    0.0000 C   0  0  0  0  0  0  0  0  0  0  0  0
   22.3895  -13.9410    0.0000 C   0  0  0  0  0  0  0  0  0  0  0  0
   23.8680  -13.9410    0.0000 C   0  0  0  0  0  0  0  0  0  0  0  0
   24.5721  -15.1378    0.0000 C   0  0  0  0  0  0  0  0  0  0  0  0
   23.8680  -16.3347    0.0000 C   0  0  0  0  0  0  0  0  0  0  0  0
   25.9802  -15.1378    0.0000 C   0  0  0  0  0  0  0  0  0  0  0  0
   26.6842  -13.9410    0.0000 C   0  0  0  0  0  0  0  0  0  0  0  0
   24.5017  -12.7441    0.0000 C   0  0  0  0  0  0  0  0  0  0  0  0
   25.9802  -12.7441    0.0000 C   0  0  0  0  0  0  0  0  0  0  0  0
   14.2226  -17.4612    0.0000 C   0  0  0  0  0  0  0  0  0  0  0  0
   12.9553  -16.7571    0.0000 C   0  0  0  0  0  0  0  0  0  0  0  0
   12.9553  -15.3491    0.0000 C   0  0  0  0  0  0  0  0  0  0  0  0
   14.2226  -14.7154    0.0000 C   0  0  0  0  0  0  0  0  0  0  0  0
   15.3491  -15.3491    0.0000 C   0  0  0  0  0  0  0  0  0  0  0  0
   14.2226  -18.8693    0.0000 C   0  0  0  0  0  0  0  0  0  0  0  0
   12.9553  -19.5733    0.0000 C   0  0  0  0  0  0  0  0  0  0  0  0
   11.7584  -18.8693    0.0000 C   0  0  0  0  0  0  0  0  0  0  0  0
   11.7584  -17.4612    0.0000 N   0  0  0  0  0  0  0  0  0  0  0  0
   10.5615  -19.5733    0.0000 O   0  0  0  0  0  0  0  0  0  0  0  0
   11.7584  -14.7154    0.0000 O   0  0  0  0  0  0  0  0  0  0  0  0
   16.5459  -18.9397    0.0000 O   0  0  0  0  0  0  0  0  0  0  0  0
   27.7900  -18.9700    0.0000 C   0  0  0  0  0  0  0  0  0  0  0  0
   29.0024  -19.6700    0.0000 C   0  0  0  0  0  0  0  0  0  0  0  0
   26.5776  -19.6700    0.0000 O   0  0  0  0  0  0  0  0  0  0  0  0
   27.7900  -17.5700    0.0000 O   0  0  0  0  0  0  0  0  0  0  0  0
   24.1031  -22.1674    0.0000 C   0  0  0  0  0  0  0  0  0  0  0  0
   22.9701  -22.8047    0.0000 C   0  0  0  0  0  0  0  0  0  0  0  0
   21.7662  -22.1674    0.0000 O   0  0  0  0  0  0  0  0  0  0  0  0
   22.9701  -24.2210    0.0000 O   0  0  0  0  0  0  0  0  0  0  0  0
   20.4915  -22.8756    0.0000 C   0  0  0  0  0  0  0  0  0  0  0  0
   19.4128  -22.0966    0.0000 C   0  0  0  0  0  0  0  0  0  0  0  0
   20.0908  -24.2414    0.0000 C   0  0  0  0  0  0  0  0  0  0  0  0
   18.2555  -22.8879    0.0000 N   0  0  0  0  0  0  0  0  0  0  0  0
   18.7293  -24.2018    0.0000 C   0  0  0  0  0  0  0  0  0  0  0  0
   25.3216  -22.8892    0.0000 C   0  0  0  0  0  0  0  0  0  0  0  0
   25.7607  -24.2172    0.0000 C   0  0  0  0  0  0  0  0  0  0  0  0
   27.1619  -24.2138    0.0000 C   0  0  0  0  0  0  0  0  0  0  0  0
   27.5915  -22.8800    0.0000 C   0  0  0  0  0  0  0  0  0  0  0  0
   26.4559  -22.0593    0.0000 C   0  0  0  0  0  0  0  0  0  0  0  0
   24.1031  -20.7511    0.0000 C   0  0  0  0  0  0  0  0  0  0  0  0
   25.3296  -20.0429    0.0000 C   0  0  0  0  0  0  0  0  0  0  0  0
   25.3296  -18.6266    0.0000 C   0  0  0  0  0  0  0  0  0  0  0  0
   24.1031  -17.9184    0.0000 C   0  0  0  0  0  0  0  0  0  0  0  0
   22.8766  -18.6266    0.0000 C   0  0  0  0  0  0  0  0  0  0  0  0
   22.8766  -20.0429    0.0000 C   0  0  0  0  0  0  0  0  0  0  0  0
   25.1880  -21.3176    0.0000 O   0  0  0  0  0  0  0  0  0  0  0  0
   17.0289  -22.1798    0.0000 C   0  0  0  0  0  0  0  0  0  0  0  0
   17.0289  -23.5960    0.0000 C   0  0  0  0  0  0  0  0  0  0  0  0
   17.5880  -25.3541    0.0000 Br  0  0  0  0  0  0  0  0  0  0  0  0
   33.4094  -17.0168    0.0000 C   0  0  0  0  0  0  0  0  0  0  0  0
   32.2455  -17.6911    0.0000 C   0  0  0  0  0  0  0  0  0  0  0  0
   34.5745  -17.6967    0.0000 C   0  0  0  0  0  0  0  0  0  0  0  0
   35.2692  -15.9227    0.0000 O   0  0  0  0  0  0  0  0  0  0  0  0
   33.3979  -15.6626    0.0000 C   0  0  0  0  0  0  0  0  0  0  0  0
   32.2455  -19.0336    0.0000 C   0  0  0  0  0  0  0  0  0  0  0  0
   31.0814  -17.0111    0.0000 C   0  0  0  0  0  0  0  0  0  0  0  0
   32.2396  -16.3195    0.0000 C   0  0  0  0  0  0  0  0  0  0  0  0
   34.5676  -19.0395    0.0000 C   0  0  0  0  0  0  0  0  0  0  0  0
   35.8931  -18.0539    0.0000 C   0  0  0  0  0  0  0  0  0  0  0  0
   36.6407  -15.9227    0.0000 C   0  0  0  0  0  0  0  0  0  0  0  0
   34.5851  -14.9768    0.0000 C   0  0  0  0  0  0  0  0  0  0  0  0
   32.2109  -14.9883    0.0000 O   0  0  0  0  0  0  0  0  0  0  0  0
   31.0758  -19.7079    0.0000 C   0  0  0  0  0  0  0  0  0  0  0  0
   29.9116  -17.6852    0.0000 C   0  0  0  0  0  0  0  0  0  0  0  0
   37.3207  -14.7357    0.0000 C   0  0  0  0  0  0  0  0  0  0  0  0
   37.3207  -17.1098    0.0000 O   0  0  0  0  0  0  0  0  0  0  0  0
   34.5736  -13.6053    0.0000 Cl  0  0  0  0  0  0  0  0  0  0  0  0
   29.9060  -19.0336    0.0000 C   0  0  0  0  0  0  0  0  0  0  0  0
   31.0814  -21.0563    0.0000 C   0  0  0  0  0  0  0  0  0  0  0  0
   28.7362  -16.9995    0.0000 O   0  0  0  0  0  0  0  0  0  0  0  0
   38.6969  -14.7425    0.0000 C   0  0  0  0  0  0  0  0  0  0  0  0
   36.9040  -13.4470    0.0000 O   0  0  0  0  0  0  0  0  0  0  0  0
   28.7418  -19.7079    0.0000 C   0  0  0  0  0  0  0  0  0  0  0  0
   29.9001  -20.3763    0.0000 Cl  0  0  0  0  0  0  0  0  0  0  0  0
   29.9116  -21.7363    0.0000 C   0  0  0  0  0  0  0  0  0  0  0  0
   39.1183  -13.4369    0.0000 C   0  0  0  0  0  0  0  0  0  0  0  0
   38.0098  -12.6305    0.0000 C   0  0  0  0  0  0  0  0  0  0  0  0
   28.7418  -21.0620    0.0000 C   0  0  0  0  0  0  0  0  0  0  0  0
   27.5721  -19.0336    0.0000 C   0  0  0  0  0  0  0  0  0  0  0  0
   28.7303  -18.3595    0.0000 C   0  0  0  0  0  0  0  0  0  0  0  0
   27.5721  -21.7363    0.0000 C   0  0  0  0  0  0  0  0  0  0  0  0
   26.4023  -19.7079    0.0000 C   0  0  0  0  0  0  0  0  0  0  0  0
   26.4023  -21.0620    0.0000 C   0  0  0  0  0  0  0  0  0  0  0  0
   25.2268  -21.7305    0.0000 O   0  0  0  0  0  0  0  0  0  0  0  0
  1  2  1  0
  1  3  1  0
  2  4  1  0
  4  5  1  0
  5  6  1  0
  6  7  1  0
  7  8  2  0
  8  9  1  0
  5  9  1  0
  7 10  1  0
 10 11  2  0
 11 12  1  0
 12 13  2  0
  8 13  1  0
 12 14  1  0
 14 15  1  0
 11 16  1  0
 16 17  1  0
  3 18  2  0
 18 19  1  0
 19 20  2  0
 20 21  1  0
 21 22  2  0
  3 22  1  0
 18 23  1  0
 23 24  2  0
 24 25  1  0
 25 26  1  0
 19 26  1  0
 25 27  2  0
 20 28  1  0
  1 29  1  6
 30 31  1  0
 30 32  1  0
 30 33  2  0
 34 35  1  0
 35 36  1  0
 35 37  2  0
 36 38  1  0
 38 39  1  0
 38 40  1  0
 39 41  1  0
 40 42  1  0
 41 42  1  0
 34 43  1  0
 43 44  1  0
 44 45  1  0
 45 46  1  0
 46 47  1  0
 43 47  1  0
 34 48  1  0
 48 49  2  0
 49 50  1  0
 50 51  2  0
 51 52  1  0
 52 53  2  0
 48 53  1  0
 34 54  1  0
 41 55  1  0
 41 56  1  0
 58 59  1  0
 58 60  1  0
 58 61  1  6
 58 62  1  0
 59 63  1  0
 59 64  1  0
 59 65  1  1
 60 66  1  0
 60 67  1  6
 61 68  1  0
 62 69  1  0
 62 70  2  0
 63 71  1  0
 64 72  1  0
 68 73  1  0
 68 74  2  0
 69 75  1  0
 71 76  1  0
 71 77  1  6
 72 78  1  1
 73 79  2  0
 73 80  1  0
 76 81  1  0
 76 82  1  6
 77 83  1  0
 79 84  1  0
 80 85  1  0
 81 86  1  0
 81 87  1  0
 81 88  1  1
 86 89  2  0
 87 90  2  0
 89 91  1  0
 91 92  2  0
 63 66  1  1
 72 76  1  0
 83 86  1  0
 84 85  2  0
 90 91  1  0
M  CHG  2  41   1  57  -1
M  END
