131842141
     RDKit          2D

 39 41  0  0  1  0  0  0  0  0999 V2000
    6.0010   -2.4050    0.0000 P   0  0  0  0  0  0  0  0  0  0  0  0
    5.1350   -1.9050    0.0000 O   0  0  0  0  0  0  0  0  0  0  0  0
    4.2690    0.5950    0.0000 O   0  0  0  0  0  0  0  0  0  0  0  0
    6.5010   -1.5390    0.0000 O   0  0  0  0  0  0  0  0  0  0  0  0
   10.3312   -3.9050    0.0000 O   0  0  0  0  0  0  0  0  0  0  0  0
    9.4651   -5.4050    0.0000 O   0  0  0  0  0  0  0  0  0  0  0  0
    5.1350    2.0950    0.0000 O   0  0  0  0  0  0  0  0  0  0  0  0
   12.9292   -4.4050    0.0000 O   0  0  0  0  0  0  0  0  0  0  0  0
   15.5273   -3.9050    0.0000 O   0  0  0  0  0  0  0  0  0  0  0  0
   18.1254   -4.4050    0.0000 O   0  0  0  0  0  0  0  0  0  0  0  0
    6.8671   -2.9050    0.0000 N   0  0  0  0  0  0  0  0  0  0  0  0
    8.5991   -3.9050    0.0000 N   0  0  0  0  0  0  0  0  0  0  0  0
    5.5010   -3.2710    0.0000 N   0  0  0  0  0  0  0  0  0  0  0  0
    2.5369   -0.4050    0.0000 N   0  0  0  0  0  0  0  0  0  0  0  0
    3.4030    2.0950    0.0000 N   0  0  0  0  0  0  0  0  0  0  0  0
    4.2690    3.5950    0.0000 N   0  0  0  0  0  0  0  0  0  0  0  0
    3.4030    5.0950    0.0000 N   0  0  0  0  0  0  0  0  0  0  0  0
    6.8671   -3.9050    0.0000 C   0  0  0  0  0  0  0  0  0  0  0  0
    7.7331   -2.4050    0.0000 C   0  0  0  0  0  0  0  0  0  0  0  0
    7.7331   -4.4050    0.0000 C   0  0  0  0  0  0  0  0  0  0  0  0
    8.5991   -2.9050    0.0000 C   0  0  0  0  0  0  0  0  0  0  0  0
    4.2690   -0.4050    0.0000 C   0  0  0  0  0  0  0  0  0  0  0  0
    5.1350   -0.9050    0.0000 C   0  0  0  0  0  0  0  0  0  0  0  0
    3.4030   -0.9050    0.0000 C   0  0  0  0  0  0  0  0  0  0  0  0
    3.4030    1.0950    0.0000 C   0  0  0  0  0  0  0  0  0  0  0  0
    2.5369    0.5950    0.0000 C   0  0  0  0  0  0  0  0  0  0  0  0
    9.4651   -4.4050    0.0000 C   0  0  0  0  0  0  0  0  0  0  0  0
    4.5010   -3.2710    0.0000 C   0  0  0  0  0  0  0  0  0  0  0  0
    6.0010   -4.1370    0.0000 C   0  0  0  0  0  0  0  0  0  0  0  0
    2.5369    2.5950    0.0000 C   0  0  0  0  0  0  0  0  0  0  0  0
    4.2690    2.5950    0.0000 C   0  0  0  0  0  0  0  0  0  0  0  0
   11.1972   -4.4050    0.0000 C   0  0  0  0  0  0  0  0  0  0  0  0
    2.5369    3.5950    0.0000 C   0  0  0  0  0  0  0  0  0  0  0  0
    3.4030    4.0950    0.0000 C   0  0  0  0  0  0  0  0  0  0  0  0
   12.0632   -3.9050    0.0000 C   0  0  0  0  0  0  0  0  0  0  0  0
   13.7953   -3.9050    0.0000 C   0  0  0  0  0  0  0  0  0  0  0  0
   14.6613   -4.4050    0.0000 C   0  0  0  0  0  0  0  0  0  0  0  0
   16.3933   -4.4050    0.0000 C   0  0  0  0  0  0  0  0  0  0  0  0
   17.2594   -3.9050    0.0000 C   0  0  0  0  0  0  0  0  0  0  0  0
  1  2  1  0
  1  4  2  0
  1 11  1  0
  1 13  1  0
  2 23  1  0
  3 22  1  0
  3 25  1  0
  5 27  1  0
  5 32  1  0
  6 27  2  0
  7 31  2  0
  8 35  1  0
  8 36  1  0
  9 37  1  0
  9 38  1  0
 10 39  1  0
 11 18  1  0
 11 19  1  0
 12 20  1  0
 12 21  1  0
 12 27  1  0
 13 28  1  0
 13 29  1  0
 14 24  1  0
 14 26  1  0
 25 15  1  6
 15 30  1  0
 15 31  1  0
 16 31  1  0
 16 34  2  0
 17 34  1  0
 18 20  1  0
 19 21  1  0
 22 23  1  6
 22 24  1  0
 25 26  1  0
 30 33  2  0
 32 35  1  0
 33 34  1  0
 36 37  1  0
 38 39  1  0
M  END
