 
     RDKit          2D

 72 74  0  0  1  0  0  0  0  0999 V2000
   10.2200  -22.8900    0.0000 C   0  0  0  0  0  0  0  0  0  0  0  0
    8.1900  -21.8400    0.0000 C   0  0  0  0  0  0  0  0  0  0  0  0
   11.4800  -22.2600    0.0000 C   0  0  0  0  0  0  0  0  0  0  0  0
    6.9300  -22.5400    0.0000 C   0  0  0  0  0  0  0  0  0  0  0  0
    8.1900  -20.4400    0.0000 N   0  0  0  0  0  0  0  0  0  0  0  0
   11.4800  -20.8600    0.0000 O   0  0  0  0  0  0  0  0  0  0  0  0
   12.6700  -22.9600    0.0000 O   0  0  0  0  0  0  0  0  0  0  0  0
    5.7400  -21.8400    0.0000 C   0  0  0  0  0  0  0  0  0  0  0  0
    6.9300  -19.7400    0.0000 C   0  0  0  0  0  0  0  0  0  0  0  0
   12.6700  -20.1600    0.0000 C   0  0  0  0  0  0  0  0  0  0  0  0
    5.7400  -20.4400    0.0000 C   0  0  0  0  0  0  0  0  0  0  0  0
   10.2200  -24.2900    0.0000 C   0  0  0  0  0  0  0  0  0  0  0  0
    9.0300  -24.9900    0.0000 C   0  0  0  0  0  0  0  0  0  0  0  0
   11.4100  -25.0600    0.0000 C   0  0  0  0  0  0  0  0  0  0  0  0
    9.0300  -26.3900    0.0000 C   0  0  0  0  0  0  0  0  0  0  0  0
   11.4100  -26.4600    0.0000 C   0  0  0  0  0  0  0  0  0  0  0  0
   10.2200  -27.0900    0.0000 C   0  0  0  0  0  0  0  0  0  0  0  0
    9.3800  -19.7400    0.0000 C   0  0  0  0  0  0  0  0  0  0  0  0
   10.5700  -20.4400    0.0000 O   0  0  0  0  0  0  0  0  0  0  0  0
    9.3800  -18.3400    0.0000 O   0  0  0  0  0  0  0  0  0  0  0  0
   10.5700  -17.6400    0.0000 C   0  0  0  0  0  0  0  0  0  0  0  0
   10.5700  -16.2400    0.0000 N   0  0  0  0  0  0  0  0  0  0  0  0
   11.7600  -15.5400    0.0000 C   0  0  0  0  0  0  0  0  0  0  0  0
   11.7600  -14.1400    0.0000 C   0  0  0  0  0  0  0  0  0  0  0  0
   10.5700  -13.4400    0.0000 C   0  0  0  0  0  0  0  0  0  0  0  0
    9.3800  -14.1400    0.0000 C   0  0  0  0  0  0  0  0  0  0  0  0
    9.3800  -15.5400    0.0000 C   0  0  0  0  0  0  0  0  0  0  0  0
   12.9500  -13.4400    0.0000 C   0  0  0  0  0  0  0  0  0  0  0  0
   14.1400  -14.1400    0.0000 O   0  0  0  0  0  0  0  0  0  0  0  0
   12.9500  -12.0400    0.0000 N   0  0  0  0  0  0  0  0  0  0  0  0
   14.1400  -11.3400    0.0000 C   0  0  0  0  0  0  0  0  0  0  0  0
   15.3300  -12.0400    0.0000 C   0  0  0  0  0  0  0  0  0  0  0  0
   16.5200  -11.3400    0.0000 O   0  0  0  0  0  0  0  0  0  0  0  0
   14.1400   -9.9400    0.0000 C   0  0  0  0  0  0  0  0  0  0  0  0
   15.3300   -9.2400    0.0000 O   0  0  0  0  0  0  0  0  0  0  0  0
   12.9500   -9.2400    0.0000 O   0  0  0  0  0  0  0  0  0  0  0  0
   13.3700  -17.0800    0.0000 Cl  0  0  0  0  0  0  0  0  0  0  0  0
   32.6431  -17.9493    0.0000 C   0  0  0  0  0  0  0  0  0  0  0  0
   31.4433  -17.2330    0.0000 C   0  0  0  0  0  0  0  0  0  0  0  0
   33.8664  -17.2563    0.0000 C   0  0  0  0  0  0  0  0  0  0  0  0
   30.2259  -17.9203    0.0000 C   0  0  0  0  0  0  0  0  0  0  0  0
   31.4607  -15.8350    0.0000 N   0  0  0  0  0  0  0  0  0  0  0  0
   33.8838  -15.8583    0.0000 O   0  0  0  0  0  0  0  0  0  0  0  0
   35.0721  -17.9726    0.0000 O   0  0  0  0  0  0  0  0  0  0  0  0
   29.0202  -17.2096    0.0000 C   0  0  0  0  0  0  0  0  0  0  0  0
   30.2549  -15.1185    0.0000 C   0  0  0  0  0  0  0  0  0  0  0  0
   35.1012  -15.1710    0.0000 C   0  0  0  0  0  0  0  0  0  0  0  0
   29.0318  -15.8058    0.0000 C   0  0  0  0  0  0  0  0  0  0  0  0
   32.6314  -19.3473    0.0000 C   0  0  0  0  0  0  0  0  0  0  0  0
   31.4140  -20.0346    0.0000 C   0  0  0  0  0  0  0  0  0  0  0  0
   33.8372  -20.0579    0.0000 C   0  0  0  0  0  0  0  0  0  0  0  0
   31.4024  -21.4383    0.0000 C   0  0  0  0  0  0  0  0  0  0  0  0
   33.8198  -21.4559    0.0000 C   0  0  0  0  0  0  0  0  0  0  0  0
   32.5965  -22.1489    0.0000 C   0  0  0  0  0  0  0  0  0  0  0  0
   39.0873  -18.1277    0.0000 Cl  0  0  0  0  0  0  0  0  0  0  0  0
   24.7100  -17.2200    0.0000 C   0  0  0  0  0  0  0  0  0  0  0  0
   23.5200  -16.5200    0.0000 C   0  0  0  0  0  0  0  0  0  0  0  0
   25.9700  -16.5900    0.0000 C   0  0  0  0  0  0  0  0  0  0  0  0
   22.3300  -17.2200    0.0000 C   0  0  0  0  0  0  0  0  0  0  0  0
   23.5200  -15.1200    0.0000 N   0  0  0  0  0  0  0  0  0  0  0  0
   25.9700  -15.1900    0.0000 O   0  0  0  0  0  0  0  0  0  0  0  0
   27.1600  -17.2900    0.0000 O   0  0  0  0  0  0  0  0  0  0  0  0
   21.1400  -16.5200    0.0000 C   0  0  0  0  0  0  0  0  0  0  0  0
   22.3300  -14.4200    0.0000 C   0  0  0  0  0  0  0  0  0  0  0  0
   27.1600  -14.4900    0.0000 C   0  0  0  0  0  0  0  0  0  0  0  0
   21.1400  -15.1200    0.0000 C   0  0  0  0  0  0  0  0  0  0  0  0
   24.7100  -18.6200    0.0000 C   0  0  0  0  0  0  0  0  0  0  0  0
   23.5200  -19.3200    0.0000 C   0  0  0  0  0  0  0  0  0  0  0  0
   25.9000  -19.3900    0.0000 C   0  0  0  0  0  0  0  0  0  0  0  0
   23.5200  -20.7200    0.0000 C   0  0  0  0  0  0  0  0  0  0  0  0
   25.9000  -20.7900    0.0000 C   0  0  0  0  0  0  0  0  0  0  0  0
   24.7100  -21.4200    0.0000 C   0  0  0  0  0  0  0  0  0  0  0  0
  1  2  1  0
  1  3  1  6
  2  4  1  1
  2  5  1  0
  3  6  1  0
  3  7  2  0
  4  8  1  0
  5  9  1  0
  6 10  1  0
  8 11  1  0
  9 11  1  0
 12 13  2  0
 12 14  1  0
 13 15  1  0
 14 16  2  0
 15 17  2  0
 16 17  1  0
  1 12  1  0
 18 19  2  0
 18  5  1  0
 18 20  1  0
 20 21  1  0
 21 22  1  0
 22 23  2  0
 23 24  1  0
 24 25  2  0
 25 26  1  0
 26 27  2  0
 22 27  1  0
 24 28  1  0
 28 29  2  0
 28 30  1  0
 30 31  1  0
 31 32  1  6
 32 33  1  0
 31 34  1  0
 34 35  1  0
 34 36  2  0
 38 39  1  0
 38 40  1  6
 39 41  1  1
 39 42  1  0
 40 43  1  0
 40 44  2  0
 41 45  1  0
 42 46  1  0
 43 47  1  0
 45 48  1  0
 46 48  1  0
 49 50  2  0
 49 51  1  0
 50 52  1  0
 51 53  2  0
 52 54  2  0
 53 54  1  0
 38 49  1  0
 56 57  1  0
 56 58  1  6
 57 59  1  1
 57 60  1  0
 58 61  1  0
 58 62  2  0
 59 63  1  0
 60 64  1  0
 61 65  1  0
 63 66  1  0
 64 66  1  0
 67 68  2  0
 67 69  1  0
 68 70  1  0
 69 71  2  0
 70 72  2  0
 71 72  1  0
 56 67  1  0
M  CHG  2  22   1  37  -1
M  END
