 
 
 
 29 32  0  0  0  0  0  0  0  0999 V2000
   32.4100   -9.6600    0.0000 C   0  0  0  0  0  0  0  0  0  0  0  0
   32.4100  -11.0600    0.0000 C   0  0  0  0  0  0  0  0  0  0  0  0
   31.2200  -11.7600    0.0000 C   0  0  0  0  0  0  0  0  0  0  0  0
   30.0300  -11.0600    0.0000 N   0  0  0  0  0  0  0  0  0  0  0  0
   30.0300   -9.6600    0.0000 C   0  0  0  0  0  0  0  0  0  0  0  0
   31.2200   -8.9600    0.0000 N   0  0  0  0  0  0  0  0  0  0  0  0
   33.6700   -8.9600    0.0000 C   0  0  0  0  0  0  0  0  0  0  0  0
   34.8600   -9.6600    0.0000 C   0  0  0  0  0  0  0  0  0  0  0  0
   34.8600  -11.0600    0.0000 C   0  0  0  0  0  0  0  0  0  0  0  0
   33.6700  -11.7600    0.0000 C   0  0  0  0  0  0  0  0  0  0  0  0
   36.0500   -8.9600    0.0000 O   0  0  0  0  0  0  0  0  0  0  0  0
   37.3100   -9.5900    0.0000 C   0  0  0  0  0  0  0  0  0  0  0  0
   36.0500  -11.7600    0.0000 O   0  0  0  0  0  0  0  0  0  0  0  0
   37.3100  -11.0600    0.0000 C   0  0  0  0  0  0  0  0  0  0  0  0
   31.2200  -13.1600    0.0000 O   0  0  0  0  0  0  0  0  0  0  0  0
   32.4100  -13.8600    0.0000 C   0  0  0  0  0  0  0  0  0  0  0  0
   32.4100  -15.2600    0.0000 C   0  0  0  0  0  0  0  0  0  0  0  0
   33.6000  -15.9600    0.0000 C   0  0  0  0  0  0  0  0  0  0  0  0
   34.8600  -15.2600    0.0000 C   0  0  0  0  0  0  0  0  0  0  0  0
   34.8600  -13.8600    0.0000 C   0  0  0  0  0  0  0  0  0  0  0  0
   33.6000  -13.1600    0.0000 C   0  0  0  0  0  0  0  0  0  0  0  0
   36.1900  -15.6800    0.0000 C   0  0  0  0  0  0  0  0  0  0  0  0
   36.9600  -14.5600    0.0000 C   0  0  0  0  0  0  0  0  0  0  0  0
   36.1900  -13.4400    0.0000 O   0  0  0  0  0  0  0  0  0  0  0  0
   38.3600  -14.5600    0.0000 C   0  0  0  0  0  0  0  0  0  0  0  0
   36.5400  -17.0100    0.0000 C   0  0  0  0  0  0  0  0  0  0  0  0
   37.8700  -17.2900    0.0000 N   0  0  0  0  0  0  0  0  0  0  0  0
   35.6300  -18.0600    0.0000 O   0  0  0  0  0  0  0  0  0  0  0  0
   38.8500  -16.2400    0.0000 C   0  0  0  0  0  0  0  0  0  0  0  0
  1  2  2  0     0  0
  2  3  1  0     0  0
  3  4  2  0     0  0
  4  5  1  0     0  0
  5  6  2  0     0  0
  1  6  1  0     0  0
  1  7  1  0     0  0
  7  8  2  0     0  0
  8  9  1  0     0  0
  9 10  2  0     0  0
  2 10  1  0     0  0
  8 11  1  0     0  0
 11 12  1  0     0  0
  9 13  1  0     0  0
 13 14  1  0     0  0
  3 15  1  0     0  0
 16 17  2  0     0  0
 17 18  1  0     0  0
 18 19  2  0     0  0
 19 20  1  0     0  0
 20 21  2  0     0  0
 16 21  1  0     0  0
 19 22  1  0     0  0
 22 23  2  0     0  0
 23 24  1  0     0  0
 20 24  1  0     0  0
 23 25  1  0     0  0
 22 26  1  0     0  0
 26 27  1  0     0  0
 26 28  2  0     0  0
 27 29  1  0     0  0
 16 15  1  0     0  0
M  END
