 
 
 
 29 32  0  0  1  0  0  0  0  0999 V2000
   19.8800  -16.8700    0.0000 C   0  0  0  0  0  0  0  0  0  0  0  0
   19.8800  -15.4700    0.0000 C   0  0  0  0  0  0  0  0  0  0  0  0
   21.0700  -14.7700    0.0000 C   0  0  0  0  0  0  0  0  0  0  0  0
   22.3300  -15.4700    0.0000 C   0  0  0  0  0  0  0  0  0  0  0  0
   22.3300  -16.8700    0.0000 C   0  0  0  0  0  0  0  0  0  0  0  0
   21.0700  -17.5700    0.0000 C   0  0  0  0  0  0  0  0  0  0  0  0
   18.6900  -17.5700    0.0000 N   0  0  0  0  0  0  0  0  0  0  0  0
   21.0700  -13.3700    0.0000 F   0  0  0  0  0  0  0  0  0  0  0  0
   23.5200  -17.5700    0.0000 F   0  0  0  0  0  0  0  0  0  0  0  0
   18.6900  -18.9700    0.0000 C   0  0  0  0  0  0  0  0  0  0  0  0
   17.4300  -19.6700    0.0000 C   0  0  0  0  0  0  0  0  0  0  0  0
   16.2400  -18.9700    0.0000 N   0  0  0  0  0  0  0  0  0  0  0  0
   16.2400  -17.5700    0.0000 C   0  0  0  0  0  0  0  0  0  0  0  0
   17.4300  -16.8700    0.0000 C   0  0  0  0  0  0  0  0  0  0  0  0
   15.0500  -19.6700    0.0000 C   0  0  0  0  0  0  0  0  0  0  0  0
   13.8600  -18.9700    0.0000 C   0  0  0  0  0  0  0  0  0  0  0  0
   12.6700  -19.6700    0.0000 C   0  0  0  0  0  0  0  0  0  0  0  0
   11.4800  -18.9700    0.0000 C   0  0  0  0  0  0  0  0  0  0  0  0
   10.1500  -19.3200    0.0000 C   0  0  0  0  0  0  0  0  0  0  0  0
    9.3800  -18.2000    0.0000 N   0  0  0  0  0  0  0  0  0  0  0  0
   10.2200  -17.1500    0.0000 C   0  0  0  0  0  0  0  0  0  0  0  0
   11.4800  -17.5700    0.0000 N   0  0  0  0  0  0  0  0  0  0  0  0
   15.0500  -21.0700    0.0000 O   0  0  0  0  0  0  0  0  0  0  0  0
    9.6600  -20.6500    0.0000 O   0  0  0  0  0  0  0  0  0  0  0  0
    9.8700  -15.8200    0.0000 O   0  0  0  0  0  0  0  0  0  0  0  0
   19.8800  -19.6700    0.0000 C   0  0  0  0  0  0  0  0  0  0  0  0
   12.6700  -18.2700    0.0000 C   0  0  0  0  0  0  0  0  0  0  0  0
   14.0700  -18.2700    0.0000 C   0  0  0  0  0  0  0  0  0  0  0  0
   13.3700  -17.0800    0.0000 C   0  0  0  0  0  0  0  0  0  0  0  0
  1  2  2  0     0  0
  2  3  1  0     0  0
  3  4  2  0     0  0
  4  5  1  0     0  0
  5  6  2  0     0  0
  1  6  1  0     0  0
  1  7  1  0     0  0
  3  8  1  0     0  0
  5  9  1  0     0  0
  7 10  1  0     0  0
 10 11  1  0     0  0
 11 12  1  0     0  0
 12 13  1  0     0  0
 13 14  1  0     0  0
  7 14  1  0     0  0
 12 15  1  0     0  0
 15 16  1  0     0  0
 16 17  1  0     0  0
 18 17  1  6     0  0
 18 19  1  0     0  0
 19 20  1  0     0  0
 20 21  1  0     0  0
 21 22  1  0     0  0
 18 22  1  0     0  0
 15 23  2  0     0  0
 19 24  2  0     0  0
 21 25  2  0     0  0
 10 26  1  1     0  0
 18 27  1  1     0  0
 27 28  1  0     0  0
 28 29  1  0     0  0
 29 27  1  0     0  0
M  END
