 
 
 
 33 36  0  0  0  0  0  0  0  0999 V2000
   13.7200  -14.7700    0.0000 C   0  0  0  0  0  0  0  0  0  0  0  0
   13.7200  -16.1700    0.0000 C   0  0  0  0  0  0  0  0  0  0  0  0
   15.0500  -16.8700    0.0000 C   0  0  0  0  0  0  0  0  0  0  0  0
   16.2400  -16.1700    0.0000 C   0  0  0  0  0  0  0  0  0  0  0  0
   16.2400  -14.7700    0.0000 C   0  0  0  0  0  0  0  0  0  0  0  0
   15.0500  -14.0700    0.0000 C   0  0  0  0  0  0  0  0  0  0  0  0
   17.5000  -16.9400    0.0000 S   0  0  0  0  0  0  0  0  0  0  0  0
   18.6900  -16.2400    0.0000 N   0  0  0  0  0  0  0  0  0  0  0  0
   19.8800  -16.8700    0.0000 C   0  0  0  0  0  0  0  0  0  0  0  0
   19.8800  -18.2700    0.0000 C   0  0  0  0  0  0  0  0  0  0  0  0
   21.0700  -18.9700    0.0000 C   0  0  0  0  0  0  0  0  0  0  0  0
   22.2600  -18.2700    0.0000 C   0  0  0  0  0  0  0  0  0  0  0  0
   22.2600  -16.8700    0.0000 N   0  0  0  0  0  0  0  0  0  0  0  0
   21.0700  -16.1700    0.0000 C   0  0  0  0  0  0  0  0  0  0  0  0
   21.0700  -14.7700    0.0000 C   0  0  0  0  0  0  0  0  0  0  0  0
   22.3300  -14.0700    0.0000 C   0  0  0  0  0  0  0  0  0  0  0  0
   19.8800  -14.1400    0.0000 O   0  0  0  0  0  0  0  0  0  0  0  0
   23.5200  -14.7700    0.0000 C   0  0  0  0  0  0  0  0  0  0  0  0
   24.7100  -14.0700    0.0000 C   0  0  0  0  0  0  0  0  0  0  0  0
   24.7100  -12.6000    0.0000 N   0  0  0  0  0  0  0  0  0  0  0  0
   23.5200  -11.9000    0.0000 C   0  0  0  0  0  0  0  0  0  0  0  0
   22.3300  -12.6000    0.0000 N   0  0  0  0  0  0  0  0  0  0  0  0
   18.6900  -17.5700    0.0000 O   0  0  0  0  0  0  0  0  0  0  0  0
   16.2400  -17.6400    0.0000 O   0  0  0  0  0  0  0  0  0  0  0  0
   12.5300  -14.0700    0.0000 Cl  0  0  0  0  0  0  0  0  0  0  0  0
   15.0500  -12.6700    0.0000 C   0  0  0  0  0  0  0  0  0  0  0  0
   16.4500  -12.6700    0.0000 F   0  0  0  0  0  0  0  0  0  0  0  0
   13.6500  -12.6700    0.0000 F   0  0  0  0  0  0  0  0  0  0  0  0
   15.0500  -11.2700    0.0000 F   0  0  0  0  0  0  0  0  0  0  0  0
   21.0700  -20.3700    0.0000 C   0  0  0  0  0  0  0  0  0  0  0  0
   25.7600  -14.9800    0.0000 N   0  0  0  0  0  0  0  0  0  0  0  0
   25.2000  -16.2400    0.0000 C   0  0  0  0  0  0  0  0  0  0  0  0
   23.8000  -16.1000    0.0000 C   0  0  0  0  0  0  0  0  0  0  0  0
  1  2  2  0     0  0
  2  3  1  0     0  0
  3  4  2  0     0  0
  4  5  1  0     0  0
  5  6  2  0     0  0
  1  6  1  0     0  0
  4  7  1  0     0  0
  7  8  1  0     0  0
  8  9  1  0     0  0
  9 10  2  0     0  0
 10 11  1  0     0  0
 11 12  2  0     0  0
 12 13  1  0     0  0
 13 14  2  0     0  0
  9 14  1  0     0  0
 14 15  1  0     0  0
 15 16  1  0     0  0
 15 17  2  0     0  0
 16 18  2  0     0  0
 18 19  1  0     0  0
 19 20  2  0     0  0
 20 21  1  0     0  0
 21 22  2  0     0  0
 16 22  1  0     0  0
  7 23  2  0     0  0
  7 24  2  0     0  0
  1 25  1  0     0  0
  6 26  1  0     0  0
 26 27  1  0     0  0
 26 28  1  0     0  0
 26 29  1  0     0  0
 11 30  1  0     0  0
 19 31  1  0     0  0
 31 32  1  0     0  0
 32 33  2  0     0  0
 18 33  1  0     0  0
M  END
