 
 
 
 35 38  0  0  0  0  0  0  0  0999 V2000
   22.3300  -13.9300    0.0000 C   0  0  0  0  0  0  0  0  0  0  0  0
   22.3300  -15.3300    0.0000 N   0  0  0  0  0  0  0  0  0  0  0  0
   23.5200  -16.0300    0.0000 C   0  0  0  0  0  0  0  0  0  0  0  0
   24.7800  -15.3300    0.0000 C   0  0  0  0  0  0  0  0  0  0  0  0
   24.7800  -13.9300    0.0000 N   0  0  0  0  0  0  0  0  0  0  0  0
   23.5200  -13.2300    0.0000 C   0  0  0  0  0  0  0  0  0  0  0  0
   22.3300  -16.7300    0.0000 C   0  0  0  0  0  0  0  0  0  0  0  0
   22.3300  -18.0600    0.0000 C   0  0  0  0  0  0  0  0  0  0  0  0
   23.5200  -18.7600    0.0000 C   0  0  0  0  0  0  0  0  0  0  0  0
   24.7800  -18.0600    0.0000 C   0  0  0  0  0  0  0  0  0  0  0  0
   24.7800  -16.7300    0.0000 C   0  0  0  0  0  0  0  0  0  0  0  0
   23.5200  -11.8300    0.0000 O   0  0  0  0  0  0  0  0  0  0  0  0
   21.0000  -13.4400    0.0000 C   0  0  0  0  0  0  0  0  0  0  0  0
   20.2300  -14.6300    0.0000 C   0  0  0  0  0  0  0  0  0  0  0  0
   21.0000  -15.7500    0.0000 C   0  0  0  0  0  0  0  0  0  0  0  0
   18.8300  -14.7700    0.0000 C   0  0  0  0  0  0  0  0  0  0  0  0
   18.2700  -16.0300    0.0000 N   0  0  0  0  0  0  0  0  0  0  0  0
   19.0400  -17.1500    0.0000 C   0  0  0  0  0  0  0  0  0  0  0  0
   20.4400  -17.0100    0.0000 N   0  0  0  0  0  0  0  0  0  0  0  0
   18.4800  -18.4800    0.0000 N   0  0  0  0  0  0  0  0  0  0  0  0
   17.0800  -18.4800    0.0000 C   0  0  0  0  0  0  0  0  0  0  0  0
   16.3800  -17.2200    0.0000 N   0  0  0  0  0  0  0  0  0  0  0  0
   14.9800  -17.2200    0.0000 C   0  0  0  0  0  0  0  0  0  0  0  0
   14.2800  -18.4800    0.0000 C   0  0  0  0  0  0  0  0  0  0  0  0
   14.9800  -19.6700    0.0000 C   0  0  0  0  0  0  0  0  0  0  0  0
   16.3800  -19.6700    0.0000 C   0  0  0  0  0  0  0  0  0  0  0  0
   12.9500  -18.4800    0.0000 N   0  0  0  0  0  0  0  0  0  0  0  0
   12.2500  -17.2200    0.0000 C   0  0  0  0  0  0  0  0  0  0  0  0
   10.8500  -17.2200    0.0000 C   0  0  0  0  0  0  0  0  0  0  0  0
   10.1500  -18.4100    0.0000 N   0  0  0  0  0  0  0  0  0  0  0  0
   10.8500  -19.6700    0.0000 C   0  0  0  0  0  0  0  0  0  0  0  0
   12.2500  -19.6700    0.0000 C   0  0  0  0  0  0  0  0  0  0  0  0
    8.7500  -18.4100    0.0000 C   0  0  0  0  0  0  0  0  0  0  0  0
   26.6000  -19.7400    0.0000 Cl  0  0  0  0  0  0  0  0  0  0  0  0
   26.6000  -19.7400    0.0000 Cl  0  0  0  0  0  0  0  0  0  0  0  0
  1  2  1  0     0  0
  2  3  1  0     0  0
  3  4  1  0     0  0
  4  5  1  0     0  0
  5  6  1  0     0  0
  1  6  1  0     0  0
  7  8  1  0     0  0
  8  9  1  0     0  0
  9 10  1  0     0  0
 10 11  1  0     0  0
 11  3  1  0     0  0
  7  3  1  0     0  0
  6 12  2  0     0  0
  1 13  2  0     0  0
 13 14  1  0     0  0
 14 15  2  0     0  0
  2 15  1  0     0  0
 14 16  1  0     0  0
 16 17  2  0     0  0
 17 18  1  0     0  0
 18 19  2  0     0  0
 15 19  1  0     0  0
 18 20  1  0     0  0
 20 21  1  0     0  0
 21 22  2  0     0  0
 22 23  1  0     0  0
 23 24  2  0     0  0
 24 25  1  0     0  0
 25 26  2  0     0  0
 21 26  1  0     0  0
 24 27  1  0     0  0
 27 28  1  0     0  0
 28 29  1  0     0  0
 29 30  1  0     0  0
 30 31  1  0     0  0
 31 32  1  0     0  0
 27 32  1  0     0  0
 30 33  1  0     0  0
M  STY  1   1 MUL
M  SLB  1   1   1
M  SCN  1   1 HT 
M  SAL   1  2  34  35
M  SPA   1  1  34
M  SDI   1  4   24.8500  -20.5100   24.8500  -18.9000
M  SDI   1  4   27.7900  -18.9000   27.7900  -20.5100
M  SMT   1 2
M  END
