68988-44-3.mol
     RDKit          2D

 41 44  0  0  0  0  0  0  0  0999 V2000
    0.8250   -1.0717    0.0000 C   0  0  0  0  0  0  0  0  0  0  0  0
    1.6500   -1.0717    0.0000 C   0  0  0  0  0  0  0  0  0  0  0  0
    2.0625   -0.3572    0.0000 C   0  0  0  0  0  0  0  0  0  0  0  0
    2.8875   -0.3572    0.0000 C   0  0  0  0  0  0  0  0  0  0  0  0
    2.0625   -1.7862    0.0000 O   0  0  0  0  0  0  0  0  0  0  0  0
    1.6500    0.3572    0.0000 N   0  0  0  0  0  0  0  0  0  0  0  0
    1.6500    1.7862    0.0000 C   0  0  0  0  0  0  0  0  0  0  0  0
    2.0625    1.0717    0.0000 C   0  0  0  0  0  0  0  0  0  0  0  0
    2.8875    1.0717    0.0000 C   0  0  0  0  0  0  0  0  0  0  0  0
    0.4125   -0.3572    0.0000 O   0  0  0  0  0  0  0  0  0  0  0  0
   -1.9049    1.1419    0.0000 C   0  0  0  0  0  0  0  0  0  0  0  0
   -1.2375    1.6268    0.0000 C   0  0  0  0  0  0  0  0  0  0  0  0
   -0.5701    1.1419    0.0000 C   0  0  0  0  0  0  0  0  0  0  0  0
   -0.8250    0.3572    0.0000 C   0  0  0  0  0  0  0  0  0  0  0  0
   -0.4125   -0.3572    0.0000 C   0  0  0  0  0  0  0  0  0  0  0  0
   -0.8250   -1.0717    0.0000 C   0  0  0  0  0  0  0  0  0  0  0  0
   -1.6500   -1.0717    0.0000 C   0  0  0  0  0  0  0  0  0  0  0  0
   -2.0625   -0.3572    0.0000 C   0  0  0  0  0  0  0  0  0  0  0  0
   -1.6500    0.3572    0.0000 C   0  0  0  0  0  0  0  0  0  0  0  0
   -2.8875   -0.3572    0.0000 C   0  0  0  0  0  0  0  0  0  0  0  0
    1.0333   -1.3357    0.0000 N   0  0  0  0  0  0  0  0  0  0  0  0
    0.2184   -1.2067    0.0000 C   0  0  0  0  0  0  0  0  0  0  0  0
    0.0893   -0.3918    0.0000 N   0  0  0  0  0  0  0  0  0  0  0  0
    0.8244   -0.0173    0.0000 C   0  0  0  0  0  0  0  0  0  0  0  0
    1.0380    0.7796    0.0000 N   0  0  0  0  0  0  0  0  0  0  0  0
    1.8348    0.9931    0.0000 C   0  0  0  0  0  0  0  0  0  0  0  0
    2.4182    0.4098    0.0000 N   0  0  0  0  0  0  0  0  0  0  0  0
    2.2047   -0.3871    0.0000 C   0  0  0  0  0  0  0  0  0  0  0  0
    1.4078   -0.6006    0.0000 C   0  0  0  0  0  0  0  0  0  0  0  0
    2.7880   -0.9705    0.0000 O   0  0  0  0  0  0  0  0  0  0  0  0
   -0.7748    0.7976    0.0000 O   0  0  0  0  0  0  0  0  0  0  0  0
   -0.6457   -0.0173    0.0000 C   0  0  0  0  0  0  0  0  0  0  0  0
   -1.3808   -0.3918    0.0000 C   0  0  0  0  0  0  0  0  0  0  0  0
   -1.9642    0.1915    0.0000 C   0  0  0  0  0  0  0  0  0  0  0  0
   -1.5896    0.9266    0.0000 C   0  0  0  0  0  0  0  0  0  0  0  0
   -1.9642    1.6617    0.0000 C   0  0  0  0  0  0  0  0  0  0  0  0
   -2.7880    1.7049    0.0000 O   0  0  0  0  0  0  0  0  0  0  0  0
   -2.7790    0.0625    0.0000 O   0  0  0  0  0  0  0  0  0  0  0  0
   -1.5099   -1.2067    0.0000 O   0  0  0  0  0  0  0  0  0  0  0  0
   -0.3650   -1.7900    0.0000 N   0  0  0  0  0  0  0  0  0  0  0  0
    2.0484    1.7900    0.0000 N   0  0  0  0  0  0  0  0  0  0  0  0
  1  2  1  0
  2  3  1  0
  3  4  1  1
  2  5  1  1
  7  8  1  0
  8  9  1  0
  6  8  1  0
  3  6  1  0
 11 12  1  0
 12 13  1  0
 13 14  1  0
 14 15  2  0
 15 16  1  0
 16 17  2  0
 17 18  1  0
 18 19  2  0
 11 19  1  0
 14 19  1  0
 18 20  1  0
 10 15  1  0
  1 10  1  0
 21 22  2  0
 22 23  1  0
 23 24  1  0
 24 25  1  0
 25 26  1  0
 26 27  2  0
 27 28  1  0
 28 29  1  0
 21 29  1  0
 24 29  2  0
 28 30  2  0
 31 32  1  0
 32 33  1  0
 33 34  1  0
 34 35  1  0
 31 35  1  0
 36 37  1  0
 35 36  1  1
 34 38  1  6
 33 39  1  6
 32 23  1  1
 22 40  1  0
 26 41  1  0
M  END
