 
     RDKit          2D

 87 95  0  0  1  0  0  0  0  0999 V2000
   15.2600  -25.4100    0.0000 C   0  0  0  0  0  0  0  0  0  0  0  0
   15.2600  -26.8100    0.0000 C   0  0  0  0  0  0  0  0  0  0  0  0
   16.4500  -27.5100    0.0000 C   0  0  0  0  0  0  0  0  0  0  0  0
   17.7100  -26.8100    0.0000 C   0  0  0  0  0  0  0  0  0  0  0  0
   17.7100  -25.4100    0.0000 C   0  0  0  0  0  0  0  0  0  0  0  0
   16.4500  -24.7100    0.0000 C   0  0  0  0  0  0  0  0  0  0  0  0
   18.9000  -27.5100    0.0000 C   0  0  0  0  0  0  0  0  0  0  0  0
   20.0900  -26.8100    0.0000 C   0  0  0  0  0  0  0  0  0  0  0  0
   20.0900  -25.4100    0.0000 C   0  0  0  0  0  0  0  0  0  0  0  0
   18.9000  -24.7100    0.0000 C   0  0  0  0  0  0  0  0  0  0  0  0
   21.3500  -24.7100    0.0000 C   0  0  0  0  0  0  0  0  0  0  0  0
   21.3500  -23.3100    0.0000 C   0  0  0  0  0  0  0  0  0  0  0  0
   20.0900  -22.6100    0.0000 C   0  0  0  0  0  0  0  0  0  0  0  0
   18.9000  -23.3100    0.0000 C   0  0  0  0  0  0  0  0  0  0  0  0
   23.7300  -24.7100    0.0000 C   0  0  0  0  0  0  0  0  0  0  0  0
   23.7300  -23.3100    0.0000 C   0  0  0  0  0  0  0  0  0  0  0  0
   22.5400  -22.6100    0.0000 C   0  0  0  0  0  0  0  0  0  0  0  0
   14.0700  -27.5100    0.0000 O   0  0  0  0  0  0  0  0  0  0  0  0
   17.7100  -24.0100    0.0000 C   0  0  0  0  0  0  0  0  0  0  0  0
   18.9000  -26.1100    0.0000 F   0  0  0  0  0  0  0  0  0  0  0  0
   18.9000  -28.9100    0.0000 F   0  0  0  0  0  0  0  0  0  0  0  0
   17.7100  -22.6100    0.0000 O   0  0  0  0  0  0  0  0  0  0  0  0
   21.3500  -21.9100    0.0000 C   0  0  0  0  0  0  0  0  0  0  0  0
   23.7300  -21.9100    0.0000 O   0  0  0  0  0  0  0  0  0  0  0  0
   25.1300  -21.9100    0.0000 C   0  0  0  0  0  0  0  0  0  0  0  0
   25.8300  -20.6975    0.0000 O   0  0  0  0  0  0  0  0  0  0  0  0
   25.8300  -23.1224    0.0000 C   0  0  0  0  0  0  0  0  0  0  0  0
   27.2298  -23.1224    0.0000 C   0  0  0  0  0  0  0  0  0  0  0  0
   22.5400  -20.9300    0.0000 C   0  0  0  0  0  0  0  0  0  0  0  0
   23.7524  -20.2300    0.0000 O   0  0  0  0  0  0  0  0  0  0  0  0
   21.3276  -20.2300    0.0000 C   0  0  0  0  0  0  0  0  0  0  0  0
   20.1321  -20.9204    0.0000 Cl  0  0  0  0  0  0  0  0  0  0  0  0
   25.1417  -23.1902    0.0000 C   0  0  0  0  0  0  0  0  0  0  0  0
   18.0324  -15.8634    0.0000 C   0  0  0  0  0  0  0  0  0  0  0  0
   18.0324  -17.2667    0.0000 C   0  0  0  0  0  0  0  0  0  0  0  0
   19.2252  -17.8981    0.0000 C   0  0  0  0  0  0  0  0  0  0  0  0
   20.4180  -17.2667    0.0000 C   0  0  0  0  0  0  0  0  0  0  0  0
   20.4180  -15.8634    0.0000 C   0  0  0  0  0  0  0  0  0  0  0  0
   19.2252  -15.2320    0.0000 C   0  0  0  0  0  0  0  0  0  0  0  0
   21.6107  -17.8981    0.0000 C   0  0  0  0  0  0  0  0  0  0  0  0
   22.7333  -17.2667    0.0000 C   0  0  0  0  0  0  0  0  0  0  0  0
   22.7333  -15.8634    0.0000 C   0  0  0  0  0  0  0  0  0  0  0  0
   21.6107  -15.2320    0.0000 C   0  0  0  0  0  0  0  0  0  0  0  0
   23.9261  -15.2320    0.0000 C   0  0  0  0  0  0  0  0  0  0  0  0
   23.9261  -13.8287    0.0000 C   0  0  0  0  0  0  0  0  0  0  0  0
   22.7333  -13.1973    0.0000 C   0  0  0  0  0  0  0  0  0  0  0  0
   21.6107  -13.8287    0.0000 C   0  0  0  0  0  0  0  0  0  0  0  0
   21.6107  -16.5650    0.0000 F   0  0  0  0  0  0  0  0  0  0  0  0
   21.6107  -19.3014    0.0000 F   0  0  0  0  0  0  0  0  0  0  0  0
   23.9261  -12.4956    0.0000 C   0  0  0  0  0  0  0  0  0  0  0  0
   20.4180  -13.1973    0.0000 O   0  0  0  0  0  0  0  0  0  0  0  0
   20.4180  -14.5303    0.0000 C   0  0  0  0  0  0  0  0  0  0  0  0
   16.9099  -17.8981    0.0000 O   0  0  0  0  0  0  0  0  0  0  0  0
   26.3509  -15.2320    0.0000 C   0  0  0  0  0  0  0  0  0  0  0  0
   26.3509  -13.8287    0.0000 C   0  0  0  0  0  0  0  0  0  0  0  0
   25.1385  -13.1287    0.0000 C   0  0  0  0  0  0  0  0  0  0  0  0
   25.1191  -11.4432    0.0000 C   0  0  0  0  0  0  0  0  0  0  0  0
   26.4519  -10.7416    0.0000 O   0  0  0  0  0  0  0  0  0  0  0  0
   23.9962  -10.7416    0.0000 C   0  0  0  0  0  0  0  0  0  0  0  0
   22.8736  -11.4432    0.0000 Cl  0  0  0  0  0  0  0  0  0  0  0  0
   26.3509  -12.4287    0.0000 O   0  0  0  0  0  0  0  0  0  0  0  0
   27.7032  -13.4664    0.0000 C   0  0  0  0  0  0  0  0  0  0  0  0
   26.8694  -16.3717    0.0000 C   0  0  0  0  0  0  0  0  0  0  0  0
   28.0726  -17.0781    0.0000 C   0  0  0  0  0  0  0  0  0  0  0  0
   29.2881  -16.3833    0.0000 C   0  0  0  0  0  0  0  0  0  0  0  0
   29.2941  -14.9831    0.0000 C   0  0  0  0  0  0  0  0  0  0  0  0
   28.0845  -14.2777    0.0000 C   0  0  0  0  0  0  0  0  0  0  0  0
   26.8689  -14.9727    0.0000 N   0  0  0  0  0  0  0  0  0  0  0  0
   30.5096  -14.2881    0.0000 C   0  0  0  0  0  0  0  0  0  0  0  0
   31.7192  -14.9934    0.0000 O   0  0  0  0  0  0  0  0  0  0  0  0
   30.5157  -12.8879    0.0000 O   0  0  0  0  0  0  0  0  0  0  0  0
   32.9349  -14.2984    0.0000 C   0  0  0  0  0  0  0  0  0  0  0  0
   34.1445  -15.0038    0.0000 C   0  0  0  0  0  0  0  0  0  0  0  0
   18.3938  -18.4674    0.0000 C   0  0  0  0  0  0  0  0  0  0  0  0
   18.3938  -19.8676    0.0000 C   0  0  0  0  0  0  0  0  0  0  0  0
   19.6093  -20.5677    0.0000 S   0  0  0  0  0  0  0  0  0  0  0  0
   19.6093  -17.7673    0.0000 C   0  0  0  0  0  0  0  0  0  0  0  0
   20.8177  -18.4674    0.0000 C   0  0  0  0  0  0  0  0  0  0  0  0
   20.8116  -19.8676    0.0000 C   0  0  0  0  0  0  0  0  0  0  0  0
   22.0212  -20.5728    0.0000 C   0  0  0  0  0  0  0  0  0  0  0  0
   23.2369  -19.8780    0.0000 C   0  0  0  0  0  0  0  0  0  0  0  0
   23.2428  -18.4778    0.0000 C   0  0  0  0  0  0  0  0  0  0  0  0
   22.0332  -17.7724    0.0000 C   0  0  0  0  0  0  0  0  0  0  0  0
   20.5930  -16.7702    0.0000 C   0  0  0  0  0  0  0  0  0  0  0  0
   18.6059  -16.7702    0.0000 C   0  0  0  0  0  0  0  0  0  0  0  0
   24.4584  -17.7830    0.0000 C   0  0  0  0  0  0  0  0  0  0  0  0
   25.6634  -17.0742    0.0000 C   0  0  0  0  0  0  0  0  0  0  0  0
  1  2  1  0
  2  3  1  0
  3  4  2  0
  4  5  1  0
  5  6  1  0
  1  6  2  0
  4  7  1  0
  7  8  1  0
  9  8  1  6
  9 10  1  0
  5 10  1  0
  9 11  1  0
 11 12  1  0
 12 13  1  0
 13 14  1  0
 10 14  1  0
 11 15  1  1
 15 16  1  0
 16 17  1  0
 12 17  1  0
  2 18  2  0
  5 19  1  1
 10 20  1  6
  7 21  1  6
 14 22  1  1
 12 23  1  1
 17 24  1  6
 24 25  1  0
 25 26  2  0
 25 27  1  0
 27 28  1  0
 17 29  1  0
 29 30  2  0
 29 31  1  0
 31 32  1  0
 16 33  1  1
 34 35  1  0
 35 36  1  0
 36 37  2  0
 37 38  1  0
 38 39  1  0
 34 39  2  0
 37 40  1  0
 40 41  1  0
 42 41  1  6
 42 43  1  0
 38 43  1  0
 42 44  1  0
 44 45  1  0
 45 46  1  0
 46 47  1  0
 43 47  1  0
 43 48  1  6
 40 49  1  6
 45 50  1  1
 47 51  1  1
 38 52  1  1
 35 53  2  0
 44 54  1  1
 54 55  1  0
 55 56  1  0
 45 56  1  0
 57 58  2  0
 57 59  1  0
 59 60  1  0
 56 57  1  0
 56 61  1  6
 55 62  1  1
 64 65  2  0
 65 66  1  0
 66 67  2  0
 67 68  1  0
 68 63  2  0
 66 69  1  0
 69 70  1  0
 69 71  2  0
 70 72  1  0
 72 73  1  0
 75 76  1  0
 76 79  1  0
 78 77  1  0
 77 74  1  0
 78 79  2  0
 79 80  1  0
 80 81  2  0
 81 82  1  0
 82 83  2  0
 83 78  1  0
 77 84  1  0
 74 75  1  0
 77 85  1  0
 82 86  1  0
 63 64  1  0
 86 87  3  0
 87 63  1  0
M  END
