 
     RDKit          2D

 78 82  0  0  1  0  0  0  0  0999 V2000
   13.3000  -18.4800    0.0000 C   0  0  0  0  0  0  0  0  0  0  0  0
   14.5600  -19.2500    0.0000 C   0  0  0  0  0  0  0  0  0  0  0  0
   15.7500  -18.4800    0.0000 N   0  0  0  0  0  0  0  0  0  0  0  0
   18.1300  -18.4800    0.0000 N   0  0  0  0  0  0  0  0  0  0  0  0
   19.3200  -19.2500    0.0000 C   0  0  0  0  0  0  0  0  0  0  0  0
   20.5100  -18.4800    0.0000 C   0  0  0  0  0  0  0  0  0  0  0  0
   21.7700  -19.2500    0.0000 N   0  0  0  0  0  0  0  0  0  0  0  0
   14.5600  -20.6500    0.0000 C   0  0  0  0  0  0  0  0  0  0  0  0
   15.7500  -21.3500    0.0000 N   0  0  0  0  0  0  0  0  0  0  0  0
   13.3000  -21.3500    0.0000 O   0  0  0  0  0  0  0  0  0  0  0  0
   15.7500  -22.7500    0.0000 C   0  0  0  0  0  0  0  0  0  0  0  0
   15.7500  -17.0800    0.0000 C   0  0  0  0  0  0  0  0  0  0  0  0
   14.4900  -16.4500    0.0000 O   0  0  0  0  0  0  0  0  0  0  0  0
   20.5100  -17.0800    0.0000 C   0  0  0  0  0  0  0  0  0  0  0  0
   19.3200  -20.6500    0.0000 O   0  0  0  0  0  0  0  0  0  0  0  0
   21.7700  -20.6500    0.0000 C   0  0  0  0  0  0  0  0  0  0  0  0
   22.9600  -21.3500    0.0000 C   0  0  0  0  0  0  0  0  0  0  0  0
   20.5800  -21.3500    0.0000 O   0  0  0  0  0  0  0  0  0  0  0  0
   24.0800  -20.6500    0.0000 C   0  0  0  0  0  0  0  0  0  0  0  0
   22.9600  -22.7500    0.0000 N   0  0  0  0  0  0  0  0  0  0  0  0
   21.7700  -23.4500    0.0000 C   0  0  0  0  0  0  0  0  0  0  0  0
   20.5100  -22.7500    0.0000 O   0  0  0  0  0  0  0  0  0  0  0  0
   21.7700  -24.7800    0.0000 C   0  0  0  0  0  0  0  0  0  0  0  0
   25.2000  -21.3500    0.0000 C   0  0  0  0  0  0  0  0  0  0  0  0
   25.2000  -22.7500    0.0000 C   0  0  0  0  0  0  0  0  0  0  0  0
   26.6000  -23.1000    0.0000 N   0  0  0  0  0  0  0  0  0  0  0  0
   27.3700  -22.0500    0.0000 C   0  0  0  0  0  0  0  0  0  0  0  0
   26.6000  -20.8600    0.0000 C   0  0  0  0  0  0  0  0  0  0  0  0
   28.7700  -22.0500    0.0000 C   0  0  0  0  0  0  0  0  0  0  0  0
   29.4700  -20.7900    0.0000 C   0  0  0  0  0  0  0  0  0  0  0  0
   28.7700  -19.6000    0.0000 C   0  0  0  0  0  0  0  0  0  0  0  0
   27.3700  -19.6000    0.0000 C   0  0  0  0  0  0  0  0  0  0  0  0
   22.9600  -25.4800    0.0000 C   0  0  0  0  0  0  0  0  0  0  0  0
   20.5800  -25.4800    0.0000 N   0  0  0  0  0  0  0  0  0  0  0  0
   19.3200  -24.7800    0.0000 C   0  0  0  0  0  0  0  0  0  0  0  0
   18.1300  -25.4800    0.0000 C   0  0  0  0  0  0  0  0  0  0  0  0
   19.3200  -23.4500    0.0000 O   0  0  0  0  0  0  0  0  0  0  0  0
   24.1500  -24.7800    0.0000 C   0  0  0  0  0  0  0  0  0  0  0  0
   25.2000  -25.4800    0.0000 C   0  0  0  0  0  0  0  0  0  0  0  0
   26.4600  -24.7800    0.0000 N   0  0  0  0  0  0  0  0  0  0  0  0
   27.6500  -25.4800    0.0000 C   0  0  0  0  0  0  0  0  0  0  0  0
   28.8400  -24.7800    0.0000 N   0  0  0  0  0  0  0  0  0  0  0  0
   27.6500  -26.8800    0.0000 N   0  0  0  0  0  0  0  0  0  0  0  0
   16.9400  -24.7800    0.0000 N   0  0  0  0  0  0  0  0  0  0  0  0
   18.1300  -26.8800    0.0000 C   0  0  0  0  0  0  0  0  0  0  0  0
   19.3900  -27.5800    0.0000 C   0  0  0  0  0  0  0  0  0  0  0  0
   19.3900  -28.9800    0.0000 C   0  0  0  0  0  0  0  0  0  0  0  0
   20.5800  -29.6800    0.0000 C   0  0  0  0  0  0  0  0  0  0  0  0
   21.8400  -28.9800    0.0000 C   0  0  0  0  0  0  0  0  0  0  0  0
   21.8400  -27.5800    0.0000 C   0  0  0  0  0  0  0  0  0  0  0  0
   20.5800  -26.8800    0.0000 C   0  0  0  0  0  0  0  0  0  0  0  0
   16.9400  -23.4500    0.0000 C   0  0  0  0  0  0  0  0  0  0  0  0
   18.2000  -22.6800    0.0000 O   0  0  0  0  0  0  0  0  0  0  0  0
   14.5600  -23.4500    0.0000 C   0  0  0  0  0  0  0  0  0  0  0  0
   14.5600  -24.7800    0.0000 C   0  0  0  0  0  0  0  0  0  0  0  0
   13.4400  -25.6200    0.0000 C   0  0  0  0  0  0  0  0  0  0  0  0
   13.8600  -26.9500    0.0000 N   0  0  0  0  0  0  0  0  0  0  0  0
   15.2600  -26.9500    0.0000 C   0  0  0  0  0  0  0  0  0  0  0  0
   15.6800  -25.5500    0.0000 N   0  0  0  0  0  0  0  0  0  0  0  0
   16.9400  -16.3100    0.0000 C   0  0  0  0  0  0  0  0  0  0  0  0
   19.3200  -16.3100    0.0000 S   0  0  0  0  0  0  0  0  0  0  0  0
   19.3200  -14.9100    0.0000 S   0  0  0  0  0  0  0  0  0  0  0  0
   16.9400  -14.9100    0.0000 C   0  0  0  0  0  0  0  0  0  0  0  0
   15.7500  -15.6100    0.0000 N   0  0  0  0  0  0  0  0  0  0  0  0
   15.7500  -14.2100    0.0000 C   0  0  0  0  0  0  0  0  0  0  0  0
   14.4900  -13.5100    0.0000 C   0  0  0  0  0  0  0  0  0  0  0  0
   16.9400  -13.5100    0.0000 O   0  0  0  0  0  0  0  0  0  0  0  0
   13.3000  -14.2800    0.0000 N   0  0  0  0  0  0  0  0  0  0  0  0
   14.4900  -12.1100    0.0000 C   0  0  0  0  0  0  0  0  0  0  0  0
   12.1100  -13.5800    0.0000 C   0  0  0  0  0  0  0  0  0  0  0  0
   10.9200  -14.2800    0.0000 C   0  0  0  0  0  0  0  0  0  0  0  0
   12.1100  -12.1800    0.0000 O   0  0  0  0  0  0  0  0  0  0  0  0
   15.6800  -11.4100    0.0000 C   0  0  0  0  0  0  0  0  0  0  0  0
   16.8700  -12.1100    0.0000 C   0  0  0  0  0  0  0  0  0  0  0  0
   18.0600  -11.4100    0.0000 N   0  0  0  0  0  0  0  0  0  0  0  0
   19.2500  -12.1100    0.0000 C   0  0  0  0  0  0  0  0  0  0  0  0
   20.4400  -11.4100    0.0000 N   0  0  0  0  0  0  0  0  0  0  0  0
   19.2500  -13.5100    0.0000 N   0  0  0  0  0  0  0  0  0  0  0  0
  2  1  1  1
  2  3  1  0
  4  5  1  0
  6  5  1  6
  6  7  1  0
  2  8  1  0
  8  9  1  0
  8 10  2  0
  9 11  1  0
  3 12  1  0
 12 13  2  0
  6 14  1  0
  5 15  2  0
  7 16  1  0
 16 17  1  0
 16 18  2  0
 17 19  1  6
 17 20  1  0
 20 21  1  0
 21 22  2  0
 21 23  1  0
 19 24  1  0
 24 25  2  0
 25 26  1  0
 26 27  1  0
 27 28  2  0
 24 28  1  0
 27 29  1  0
 29 30  2  0
 30 31  1  0
 31 32  2  0
 32 28  1  0
 23 33  1  6
 23 34  1  0
 34 35  1  0
 35 36  1  0
 35 37  2  0
 33 38  1  0
 38 39  1  0
 39 40  1  0
 40 41  1  0
 41 42  1  0
 41 43  2  0
 36 44  1  0
 36 45  1  1
 45 46  1  0
 46 47  2  0
 47 48  1  0
 48 49  2  0
 49 50  1  0
 50 51  2  0
 46 51  1  0
 44 52  1  0
 52 11  1  0
 52 53  2  0
 11 54  1  6
 54 55  1  0
 55 56  2  0
 56 57  1  0
 57 58  2  0
 58 59  1  0
 55 59  1  0
 12 60  1  0
 61 14  1  0
 61 62  1  0
 60 63  1  0
 62 63  1  0
 60 64  1  1
 64 65  1  0
 65 66  1  0
 65 67  2  0
 66 68  1  0
 66 69  1  1
 68 70  1  0
 70 71  1  0
 70 72  2  0
 69 73  1  0
 73 74  1  0
 74 75  1  0
 75 76  1  0
 76 77  1  0
 76 78  2  0
M  END
