 
 
 
 34 36  0  0  0  0  0  0  0  0999 V2000
   13.2178  -15.1060    0.0000 C   0  0  0  0  0  0  0  0  0  0  0  0
   13.2178  -16.5047    0.0000 C   0  0  0  0  0  0  0  0  0  0  0  0
   14.5465  -17.2041    0.0000 C   0  0  0  0  0  0  0  0  0  0  0  0
   15.7354  -16.5047    0.0000 C   0  0  0  0  0  0  0  0  0  0  0  0
   15.7354  -15.1060    0.0000 C   0  0  0  0  0  0  0  0  0  0  0  0
   14.5465  -14.4067    0.0000 C   0  0  0  0  0  0  0  0  0  0  0  0
   16.9943  -17.2740    0.0000 S   0  0  0  0  0  0  0  0  0  0  0  0
   18.1832  -16.5747    0.0000 N   0  5  0  0  0  0  0  0  0  0  0  0
   19.3721  -17.2041    0.0000 C   0  0  0  0  0  0  0  0  0  0  0  0
   19.3721  -18.6028    0.0000 C   0  0  0  0  0  0  0  0  0  0  0  0
   20.5610  -19.3021    0.0000 C   0  0  0  0  0  0  0  0  0  0  0  0
   21.7499  -18.6028    0.0000 C   0  0  0  0  0  0  0  0  0  0  0  0
   21.7499  -17.2041    0.0000 N   0  0  0  0  0  0  0  0  0  0  0  0
   20.5610  -16.5047    0.0000 C   0  0  0  0  0  0  0  0  0  0  0  0
   20.5610  -15.1060    0.0000 C   0  0  0  0  0  0  0  0  0  0  0  0
   21.8198  -14.4067    0.0000 C   0  0  0  0  0  0  0  0  0  0  0  0
   19.3721  -14.4766    0.0000 O   0  0  0  0  0  0  0  0  0  0  0  0
   23.0087  -15.1060    0.0000 C   0  0  0  0  0  0  0  0  0  0  0  0
   24.1976  -14.4067    0.0000 C   0  0  0  0  0  0  0  0  0  0  0  0
   24.1976  -12.9380    0.0000 N   0  0  0  0  0  0  0  0  0  0  0  0
   23.0087  -12.2387    0.0000 C   0  0  0  0  0  0  0  0  0  0  0  0
   21.8198  -12.9380    0.0000 N   0  0  0  0  0  0  0  0  0  0  0  0
   18.1832  -17.9034    0.0000 O   0  0  0  0  0  0  0  0  0  0  0  0
   15.7354  -17.9734    0.0000 O   0  0  0  0  0  0  0  0  0  0  0  0
   12.0289  -14.4067    0.0000 Cl  0  0  0  0  0  0  0  0  0  0  0  0
   14.5465  -13.0080    0.0000 C   0  0  0  0  0  0  0  0  0  0  0  0
   15.9453  -13.0080    0.0000 F   0  0  0  0  0  0  0  0  0  0  0  0
   13.1478  -13.0080    0.0000 F   0  0  0  0  0  0  0  0  0  0  0  0
   14.5465  -11.6093    0.0000 F   0  0  0  0  0  0  0  0  0  0  0  0
   20.5610  -20.7009    0.0000 C   0  0  0  0  0  0  0  0  0  0  0  0
   25.2467  -15.3158    0.0000 N   0  0  0  0  0  0  0  0  0  0  0  0
   24.6872  -16.5747    0.0000 C   0  0  0  0  0  0  0  0  0  0  0  0
   23.2885  -16.4348    0.0000 C   0  0  0  0  0  0  0  0  0  0  0  0
   17.5000  -13.0900    0.0000 Na  0  3  0  0  0  0  0  0  0  0  0  0
  1  2  2  0     0  0
  2  3  1  0     0  0
  3  4  2  0     0  0
  4  5  1  0     0  0
  5  6  2  0     0  0
  1  6  1  0     0  0
  4  7  1  0     0  0
  7  8  1  0     0  0
  8  9  1  0     0  0
  9 10  2  0     0  0
 10 11  1  0     0  0
 11 12  2  0     0  0
 12 13  1  0     0  0
 13 14  2  0     0  0
  9 14  1  0     0  0
 14 15  1  0     0  0
 15 16  1  0     0  0
 15 17  2  0     0  0
 16 18  2  0     0  0
 18 19  1  0     0  0
 19 20  2  0     0  0
 20 21  1  0     0  0
 21 22  2  0     0  0
 16 22  1  0     0  0
  7 23  2  0     0  0
  7 24  2  0     0  0
  1 25  1  0     0  0
  6 26  1  0     0  0
 26 27  1  0     0  0
 26 28  1  0     0  0
 26 29  1  0     0  0
 11 30  1  0     0  0
 19 31  1  0     0  0
 31 32  1  0     0  0
 32 33  2  0     0  0
 18 33  1  0     0  0
M  CHG  2   8  -1  34   1
M  END
