 
 
 
 41 45  0  0  0  0  0  0  0  0999 V2000
   14.4900  -15.4700    0.0000 C   0  0  0  0  0  0  0  0  0  0  0  0
   14.4900  -16.8700    0.0000 C   0  0  0  0  0  0  0  0  0  0  0  0
   15.7024  -17.5700    0.0000 C   0  0  0  0  0  0  0  0  0  0  0  0
   16.9149  -16.8700    0.0000 C   0  0  0  0  0  0  0  0  0  0  0  0
   16.9149  -15.4700    0.0000 C   0  0  0  0  0  0  0  0  0  0  0  0
   15.7024  -14.7700    0.0000 N   0  0  0  0  0  0  0  0  0  0  0  0
   18.1273  -17.5700    0.0000 C   0  0  0  0  0  0  0  0  0  0  0  0
   19.3397  -16.8700    0.0000 N   0  0  0  0  0  0  0  0  0  0  0  0
   19.3397  -15.4700    0.0000 C   0  0  0  0  0  0  0  0  0  0  0  0
   18.1273  -14.7700    0.0000 N   0  0  0  0  0  0  0  0  0  0  0  0
   13.2776  -17.5700    0.0000 F   0  0  0  0  0  0  0  0  0  0  0  0
   13.2776  -14.7700    0.0000 C   0  0  0  0  0  0  0  0  0  0  0  0
   13.2776  -13.3702    0.0000 C   0  0  0  0  0  0  0  0  0  0  0  0
   12.0651  -12.6702    0.0000 C   0  0  0  0  0  0  0  0  0  0  0  0
   10.8527  -13.3702    0.0000 C   0  0  0  0  0  0  0  0  0  0  0  0
   10.8527  -14.7700    0.0000 C   0  0  0  0  0  0  0  0  0  0  0  0
   12.0651  -15.4700    0.0000 C   0  0  0  0  0  0  0  0  0  0  0  0
   12.0651  -16.8698    0.0000 F   0  0  0  0  0  0  0  0  0  0  0  0
   14.5068  -12.6603    0.0000 O   0  0  0  0  0  0  0  0  0  0  0  0
   20.5373  -14.7785    0.0000 O   0  0  0  0  0  0  0  0  0  0  0  0
   18.1273  -12.3900    0.0000 C   0  0  0  0  0  0  0  0  0  0  0  0
   19.3418  -11.6888    0.0000 C   0  0  0  0  0  0  0  0  0  0  0  0
   19.3418  -10.2888    0.0000 N   0  0  0  0  0  0  0  0  0  0  0  0
   18.1293   -9.5888    0.0000 C   0  0  0  0  0  0  0  0  0  0  0  0
   16.9149  -10.2900    0.0000 C   0  0  0  0  0  0  0  0  0  0  0  0
   16.9149  -11.6900    0.0000 C   0  0  0  0  0  0  0  0  0  0  0  0
   15.7214  -12.3793    0.0000 C   0  0  0  0  0  0  0  0  0  0  0  0
   20.5383  -12.3798    0.0000 C   0  0  0  0  0  0  0  0  0  0  0  0
   21.7251  -11.6946    0.0000 C   0  0  0  0  0  0  0  0  0  0  0  0
   20.5384  -13.7897    0.0000 C   0  0  0  0  0  0  0  0  0  0  0  0
   18.1273  -18.9700    0.0000 N   0  0  0  0  0  0  0  0  0  0  0  0
   16.9169  -19.6688    0.0000 C   0  0  0  0  0  0  0  0  0  0  0  0
   16.9169  -21.0688    0.0000 C   0  0  0  0  0  0  0  0  0  0  0  0
   18.1293  -21.7688    0.0000 N   0  0  0  0  0  0  0  0  0  0  0  0
   19.3397  -21.0700    0.0000 C   0  0  0  0  0  0  0  0  0  0  0  0
   19.3397  -19.6700    0.0000 C   0  0  0  0  0  0  0  0  0  0  0  0
   20.5373  -18.9785    0.0000 C   0  0  0  0  0  0  0  0  0  0  0  0
   18.1293  -23.1700    0.0000 C   0  0  0  0  0  0  0  0  0  0  0  0
   19.3423  -23.8703    0.0000 C   0  0  0  0  0  0  0  0  0  0  0  0
   16.9174  -23.8697    0.0000 O   0  0  0  0  0  0  0  0  0  0  0  0
   19.3423  -25.2698    0.0000 C   0  0  0  0  0  0  0  0  0  0  0  0
  1  2  2  0     0  0
  2  3  1  0     0  0
  3  4  2  0     0  0
  4  5  1  0     0  0
  5  6  2  0     0  0
  1  6  1  0     0  0
  4  7  1  0     0  0
  7  8  2  0     0  0
  8  9  1  0     0  0
  9 10  1  0     0  0
  5 10  1  0     0  0
  2 11  1  0     0  0
  1 12  1  0     0  0
 12 13  2  0     0  0
 13 14  1  0     0  0
 14 15  2  0     0  0
 15 16  1  0     0  0
 16 17  2  0     0  0
 12 17  1  0     0  0
 17 18  1  0     0  0
 13 19  1  0     0  0
  9 20  2  0     0  0
 10 21  1  0     0  0
 21 22  2  0     0  0
 22 23  1  0     0  0
 23 24  2  0     0  0
 24 25  1  0     0  0
 25 26  2  0     0  0
 21 26  1  0     0  0
 26 27  1  0     0  0
 22 28  1  0     0  0
 28 29  1  0     0  0
 28 30  1  0     0  0
  7 31  1  0     0  0
 31 32  1  0     0  0
 32 33  1  0     0  0
 33 34  1  0     0  0
 34 35  1  0     0  0
 35 36  1  0     0  0
 31 36  1  0     0  0
 36 37  1  0     0  0
 34 38  1  0     0  0
 38 39  1  0     0  0
 38 40  2  0     0  0
 39 41  2  0     0  0
M  END
