 
 
 
 20 20  0  0  1  0  0  0  0  0999 V2000
   16.8329  -16.1384    0.0000 C   0  0  0  0  0  0  0  0  0  0  0  0
   16.8329  -17.5417    0.0000 C   0  0  0  0  0  0  0  0  0  0  0  0
   18.0258  -18.2434    0.0000 C   0  0  0  0  0  0  0  0  0  0  0  0
   19.2887  -17.5417    0.0000 C   0  0  0  0  0  0  0  0  0  0  0  0
   19.2887  -16.1384    0.0000 C   0  0  0  0  0  0  0  0  0  0  0  0
   18.0258  -15.4367    0.0000 C   0  0  0  0  0  0  0  0  0  0  0  0
   15.6401  -15.4367    0.0000 O   0  0  0  0  0  0  0  0  0  0  0  0
   15.6401  -18.2434    0.0000 O   0  0  0  0  0  0  0  0  0  0  0  0
   20.4816  -15.4367    0.0000 C   0  0  0  0  0  0  0  0  0  0  0  0
   21.6744  -16.1384    0.0000 C   0  0  0  0  0  0  0  0  0  0  0  0
   22.8672  -15.4367    0.0000 C   0  0  0  0  0  0  0  0  0  0  0  0
   24.0601  -16.1384    0.0000 O   0  0  0  0  0  0  0  0  0  0  0  0
   22.8672  -14.0334    0.0000 O   0  0  0  0  0  0  0  0  0  0  0  0
   22.3761  -17.3312    0.0000 N   0  0  0  0  0  0  0  0  0  0  0  0
   20.6921  -17.1207    0.0000 C   0  0  0  0  0  0  0  0  0  0  0  0
   23.7794  -17.3312    0.0000 N   0  0  0  0  0  0  0  0  0  0  0  0
   14.3771  -17.5417    0.0000 P   0  0  0  0  0  0  0  0  0  0  0  0
   13.1843  -18.3136    0.0000 O   0  0  0  0  0  0  0  0  0  0  0  0
   14.3771  -16.1384    0.0000 O   0  0  0  0  0  0  0  0  0  0  0  0
   13.1843  -16.8401    0.0000 O   0  0  0  0  0  0  0  0  0  0  0  0
  1  2  2  0     0  0
  2  3  1  0     0  0
  3  4  2  0     0  0
  4  5  1  0     0  0
  5  6  2  0     0  0
  1  6  1  0     0  0
  1  7  1  0     0  0
  2  8  1  0     0  0
  5  9  1  0     0  0
  9 10  1  0     0  0
 10 11  1  0     0  0
 11 12  1  0     0  0
 11 13  2  0     0  0
 10 14  1  1     0  0
 10 15  1  6     0  0
 14 16  1  0     0  0
  8 17  1  0     0  0
 17 18  1  0     0  0
 17 19  1  0     0  0
 17 20  2  0     0  0
M  END
