 
 
 
 37 40  0  0  0  0  0  0  0  0999 V2000
   19.3350  -14.3095    0.0000 C   0  0  0  0  0  0  0  0  0  0  0  0
   19.3350  -15.7055    0.0000 C   0  0  0  0  0  0  0  0  0  0  0  0
   20.6612  -16.1243    0.0000 C   0  0  0  0  0  0  0  0  0  0  0  0
   21.4988  -15.0075    0.0000 N   0  0  0  0  0  0  0  0  0  0  0  0
   20.6612  -13.8907    0.0000 C   0  0  0  0  0  0  0  0  0  0  0  0
   18.0088  -13.8907    0.0000 C   0  0  0  0  0  0  0  0  0  0  0  0
   17.2409  -15.0075    0.0000 C   0  0  0  0  0  0  0  0  0  0  0  0
   18.0088  -16.1243    0.0000 S   0  0  0  0  0  0  0  0  0  0  0  0
   15.7751  -15.0075    0.0000 C   0  0  0  0  0  0  0  0  0  0  0  0
   15.0771  -13.8209    0.0000 C   0  0  0  0  0  0  0  0  0  0  0  0
   13.6811  -13.8209    0.0000 C   0  0  0  0  0  0  0  0  0  0  0  0
   12.9831  -15.0075    0.0000 N   0  0  0  0  0  0  0  0  0  0  0  0
   13.6811  -16.2639    0.0000 C   0  0  0  0  0  0  0  0  0  0  0  0
   15.0771  -16.2639    0.0000 N   0  0  0  0  0  0  0  0  0  0  0  0
   13.0529  -17.4505    0.0000 N   0  0  0  0  0  0  0  0  0  0  0  0
   11.6568  -17.4505    0.0000 C   0  0  0  0  0  0  0  0  0  0  0  0
   10.8192  -16.2639    0.0000 C   0  0  0  0  0  0  0  0  0  0  0  0
    9.4232  -16.6827    0.0000 C   0  0  0  0  0  0  0  0  0  0  0  0
    9.4232  -18.1486    0.0000 N   0  0  0  0  0  0  0  0  0  0  0  0
   10.8192  -18.5674    0.0000 N   0  0  0  0  0  0  0  0  0  0  0  0
   11.2380  -19.8936    0.0000 C   0  0  0  0  0  0  0  0  0  0  0  0
   21.0800  -12.5645    0.0000 O   0  0  0  0  0  0  0  0  0  0  0  0
   21.0800  -17.4505    0.0000 C   0  0  0  0  0  0  0  0  0  0  0  0
   19.6840  -17.1015    0.0000 C   0  0  0  0  0  0  0  0  0  0  0  0
   22.8949  -15.0075    0.0000 C   0  0  0  0  0  0  0  0  0  0  0  0
   23.5929  -13.8209    0.0000 C   0  0  0  0  0  0  0  0  0  0  0  0
   24.9889  -13.8209    0.0000 N   0  0  0  0  0  0  0  0  0  0  0  0
   25.6869  -15.0773    0.0000 C   0  0  0  0  0  0  0  0  0  0  0  0
   27.0829  -15.0075    0.0000 C   0  0  0  0  0  0  0  0  0  0  0  0
   27.7810  -13.8209    0.0000 O   0  0  0  0  0  0  0  0  0  0  0  0
   27.0829  -12.6343    0.0000 C   0  0  0  0  0  0  0  0  0  0  0  0
   25.6869  -12.6343    0.0000 C   0  0  0  0  0  0  0  0  0  0  0  0
   26.8800  -18.6900    0.0000 S   0  0  0  0  0  0  0  0  0  0  0  0
   25.4800  -18.6900    0.0000 C   0  0  0  0  0  0  0  0  0  0  0  0
   28.2800  -18.6900    0.0000 O   0  0  0  0  0  0  0  0  0  0  0  0
   26.8800  -17.2900    0.0000 O   0  0  0  0  0  0  0  0  0  0  0  0
   26.8800  -20.0900    0.0000 O   0  0  0  0  0  0  0  0  0  0  0  0
  1  2  2  0     0  0
  2  3  1  0     0  0
  3  4  1  0     0  0
  4  5  1  0     0  0
  1  5  1  0     0  0
  1  6  1  0     0  0
  6  7  2  0     0  0
  7  8  1  0     0  0
  2  8  1  0     0  0
  7  9  1  0     0  0
  9 10  2  0     0  0
 10 11  1  0     0  0
 11 12  2  0     0  0
 12 13  1  0     0  0
 13 14  2  0     0  0
  9 14  1  0     0  0
 13 15  1  0     0  0
 15 16  1  0     0  0
 16 17  2  0     0  0
 17 18  1  0     0  0
 18 19  2  0     0  0
 19 20  1  0     0  0
 16 20  1  0     0  0
 20 21  1  0     0  0
  5 22  2  0     0  0
  3 23  1  0     0  0
  3 24  1  0     0  0
  4 25  1  0     0  0
 25 26  1  0     0  0
 26 27  1  0     0  0
 27 28  1  0     0  0
 28 29  1  0     0  0
 29 30  1  0     0  0
 30 31  1  0     0  0
 31 32  1  0     0  0
 27 32  1  0     0  0
 33 34  1  0     0  0
 33 35  1  0     0  0
 33 36  2  0     0  0
 33 37  2  0     0  0
M  END
