 
 
 
 19 21  0  0  0  0  0  0  0  0999 V2000
   25.7072  -23.3799    0.0000 C   0  0  0  0  0  0  0  0  0  0  0  0
   24.5324  -24.1090    0.0000 N   0  0  0  0  0  0  0  0  0  0  0  0
   23.2135  -23.7199    0.0000 C   0  0  0  0  0  0  0  0  0  0  0  0
   22.3409  -24.8146    0.0000 N   0  0  0  0  0  0  0  0  0  0  0  0
   23.1474  -25.9587    0.0000 C   0  0  0  0  0  0  0  0  0  0  0  0
   24.4911  -25.5082    0.0000 C   0  0  0  0  0  0  0  0  0  0  0  0
   25.5945  -26.3273    0.0000 O   0  0  0  0  0  0  0  0  0  0  0  0
   24.1421  -22.7059    0.0000 C   0  0  0  0  0  0  0  0  0  0  0  0
   23.7207  -21.3708    0.0000 C   0  0  0  0  0  0  0  0  0  0  0  0
   22.3538  -21.0682    0.0000 N   0  0  0  0  0  0  0  0  0  0  0  0
   21.4252  -22.0823    0.0000 C   0  0  0  0  0  0  0  0  0  0  0  0
   21.8466  -23.4173    0.0000 C   0  0  0  0  0  0  0  0  0  0  0  0
   21.9357  -19.7436    0.0000 C   0  0  0  0  0  0  0  0  0  0  0  0
   25.7072  -21.9799    0.0000 C   0  0  0  0  0  0  0  0  0  0  0  0
   26.9066  -21.2873    0.0000 C   0  0  0  0  0  0  0  0  0  0  0  0
   26.9066  -19.8873    0.0000 C   0  0  0  0  0  0  0  0  0  0  0  0
   25.6941  -19.1874    0.0000 C   0  0  0  0  0  0  0  0  0  0  0  0
   24.4947  -19.8800    0.0000 C   0  0  0  0  0  0  0  0  0  0  0  0
   24.4948  -21.2800    0.0000 C   0  0  0  0  0  0  0  0  0  0  0  0
  1  2  1  0     0  0
  2  3  1  0     0  0
  3  4  1  0     0  0
  4  5  1  0     0  0
  5  6  1  0     0  0
  2  6  1  0     0  0
  6  7  2  0     0  0
  3  8  1  0     0  0
  8  9  1  0     0  0
  9 10  1  0     0  0
 10 11  1  0     0  0
 11 12  1  0     0  0
  3 12  1  0     0  0
 10 13  1  0     0  0
  1 14  1  0     0  0
 14 15  2  0     0  0
 15 16  1  0     0  0
 16 17  2  0     0  0
 17 18  1  0     0  0
 18 19  2  0     0  0
 14 19  1  0     0  0
M  END
