 
 
 
 27 30  0  0  0  0  0  0  0  0999 V2000
   13.5100  -18.5500    0.0000 N   0  0  0  0  0  0  0  0  0  0  0  0
   13.5100  -19.9500    0.0000 C   0  0  0  0  0  0  0  0  0  0  0  0
   14.7224  -20.6500    0.0000 N   0  0  0  0  0  0  0  0  0  0  0  0
   15.9349  -19.9500    0.0000 C   0  0  0  0  0  0  0  0  0  0  0  0
   15.9349  -18.5500    0.0000 C   0  0  0  0  0  0  0  0  0  0  0  0
   14.7224  -17.8500    0.0000 C   0  0  0  0  0  0  0  0  0  0  0  0
   14.7224  -16.4502    0.0000 O   0  0  0  0  0  0  0  0  0  0  0  0
   12.1785  -18.1174    0.0000 N   0  0  0  0  0  0  0  0  0  0  0  0
   11.3556  -19.2500    0.0000 C   0  0  0  0  0  0  0  0  0  0  0  0
   12.1785  -20.3826    0.0000 S   0  0  0  0  0  0  0  0  0  0  0  0
    9.9400  -19.2500    0.0000 C   0  0  0  0  0  0  0  0  0  0  0  0
    9.2400  -18.0376    0.0000 C   0  0  0  0  0  0  0  0  0  0  0  0
    7.8400  -18.0376    0.0000 N   0  0  0  0  0  0  0  0  0  0  0  0
    7.1400  -19.2500    0.0000 C   0  0  0  0  0  0  0  0  0  0  0  0
    7.8400  -20.4624    0.0000 C   0  0  0  0  0  0  0  0  0  0  0  0
    9.2400  -20.4624    0.0000 C   0  0  0  0  0  0  0  0  0  0  0  0
    7.1496  -21.6579    0.0000 N   0  0  0  0  0  0  0  0  0  0  0  0
    5.7403  -21.6580    0.0000 C   0  0  0  0  0  0  0  0  0  0  0  0
    5.0279  -20.4246    0.0000 O   0  0  0  0  0  0  0  0  0  0  0  0
    5.0523  -22.8494    0.0000 C   0  0  0  0  0  0  0  0  0  0  0  0
    3.6403  -22.8496    0.0000 N   0  0  0  0  0  0  0  0  0  0  0  0
   17.1660  -20.6610    0.0000 N   0  0  0  0  0  0  0  0  0  0  0  0
   17.1657  -22.0499    0.0000 C   0  0  0  0  0  0  0  0  0  0  0  0
   18.3780  -22.7502    0.0000 C   0  0  0  0  0  0  0  0  0  0  0  0
   19.5906  -22.0505    0.0000 N   0  0  0  0  0  0  0  0  0  0  0  0
   19.5909  -20.6616    0.0000 C   0  0  0  0  0  0  0  0  0  0  0  0
   18.3786  -19.9613    0.0000 C   0  0  0  0  0  0  0  0  0  0  0  0
  1  2  1  0     0  0
  2  3  2  0     0  0
  3  4  1  0     0  0
  4  5  2  0     0  0
  5  6  1  0     0  0
  1  6  1  0     0  0
  6  7  2  0     0  0
  1  8  1  0     0  0
  8  9  2  0     0  0
  9 10  1  0     0  0
  2 10  1  0     0  0
  9 11  1  0     0  0
 11 12  2  0     0  0
 12 13  1  0     0  0
 13 14  2  0     0  0
 14 15  1  0     0  0
 15 16  2  0     0  0
 11 16  1  0     0  0
 15 17  1  0     0  0
 17 18  1  0     0  0
 18 19  2  0     0  0
 18 20  1  0     0  0
 20 21  1  0     0  0
  4 22  1  0     0  0
 22 23  1  0     0  0
 23 24  1  0     0  0
 24 25  1  0     0  0
 25 26  1  0     0  0
 26 27  1  0     0  0
 22 27  1  0     0  0
M  END
