 
 
 
 35 38  0  0  1  0  0  0  0  0999 V2000
    7.7700  -12.3200    0.0000 C   0  0  0  0  0  0  0  0  0  0  0  0
    7.7700  -13.7200    0.0000 C   0  0  0  0  0  0  0  0  0  0  0  0
    8.9824  -14.4200    0.0000 C   0  0  0  0  0  0  0  0  0  0  0  0
   10.1949  -13.7200    0.0000 C   0  0  0  0  0  0  0  0  0  0  0  0
   10.1949  -12.3200    0.0000 C   0  0  0  0  0  0  0  0  0  0  0  0
    8.9824  -11.6200    0.0000 N   0  0  0  0  0  0  0  0  0  0  0  0
   11.4260  -14.4310    0.0000 C   0  0  0  0  0  0  0  0  0  0  0  0
   12.6312  -13.7353    0.0000 N   0  0  0  0  0  0  0  0  0  0  0  0
   11.4257  -15.8199    0.0000 O   0  0  0  0  0  0  0  0  0  0  0  0
   13.8135  -14.4181    0.0000 C   0  0  0  0  0  0  0  0  0  0  0  0
   13.8134  -15.8198    0.0000 C   0  0  0  0  0  0  0  0  0  0  0  0
   15.0258  -16.5199    0.0000 C   0  0  0  0  0  0  0  0  0  0  0  0
   16.2383  -15.8200    0.0000 C   0  0  0  0  0  0  0  0  0  0  0  0
   16.2384  -14.4183    0.0000 C   0  0  0  0  0  0  0  0  0  0  0  0
   15.0260  -13.7182    0.0000 C   0  0  0  0  0  0  0  0  0  0  0  0
   17.4514  -13.7182    0.0000 C   0  0  0  0  0  0  0  0  0  0  0  0
   18.6484  -14.4096    0.0000 N   0  0  0  0  0  0  0  0  0  0  0  0
   19.8351  -13.7246    0.0000 C   0  0  0  0  0  0  0  0  0  0  0  0
   21.0265  -14.4128    0.0000 N   0  0  0  0  0  0  0  0  0  0  0  0
   22.2391  -13.7131    0.0000 C   0  0  0  0  0  0  0  0  0  0  0  0
   22.2394  -12.3131    0.0000 C   0  0  0  0  0  0  0  0  0  0  0  0
   21.0480  -11.6249    0.0000 N   0  0  0  0  0  0  0  0  0  0  0  0
   19.8354  -12.3246    0.0000 C   0  0  0  0  0  0  0  0  0  0  0  0
   23.4700  -14.4242    0.0000 C   0  0  0  0  0  0  0  0  0  0  0  0
   23.4696  -15.8199    0.0000 C   0  0  0  0  0  0  0  0  0  0  0  0
   24.6818  -16.5202    0.0000 C   0  0  0  0  0  0  0  0  0  0  0  0
   25.8944  -15.8206    0.0000 C   0  0  0  0  0  0  0  0  0  0  0  0
   25.8949  -14.4250    0.0000 C   0  0  0  0  0  0  0  0  0  0  0  0
   24.6827  -13.7246    0.0000 C   0  0  0  0  0  0  0  0  0  0  0  0
   27.1135  -13.7219    0.0000 O   0  0  0  0  0  0  0  0  0  0  0  0
   28.3072  -14.4117    0.0000 C   0  0  0  0  0  0  0  0  0  0  0  0
   27.1105  -16.5233    0.0000 O   0  0  0  0  0  0  0  0  0  0  0  0
   28.3091  -15.8316    0.0000 C   0  0  0  0  0  0  0  0  0  0  0  0
   17.4515  -12.3202    0.0000 C   0  0  0  0  0  0  0  0  0  0  0  0
    6.5576  -14.4200    0.0000 C   0  0  0  0  0  0  0  0  0  0  0  0
  1  2  2  0     0  0
  2  3  1  0     0  0
  3  4  2  0     0  0
  4  5  1  0     0  0
  5  6  2  0     0  0
  1  6  1  0     0  0
  4  7  1  0     0  0
  7  8  1  0     0  0
  7  9  2  0     0  0
  8 10  1  0     0  0
 10 11  2  0     0  0
 11 12  1  0     0  0
 12 13  2  0     0  0
 13 14  1  0     0  0
 14 15  2  0     0  0
 10 15  1  0     0  0
 14 16  1  0     0  0
 16 17  1  0     0  0
 17 18  1  0     0  0
 18 19  2  0     0  0
 19 20  1  0     0  0
 20 21  2  0     0  0
 21 22  1  0     0  0
 22 23  2  0     0  0
 18 23  1  0     0  0
 20 24  1  0     0  0
 24 25  2  0     0  0
 25 26  1  0     0  0
 26 27  2  0     0  0
 27 28  1  0     0  0
 28 29  2  0     0  0
 24 29  1  0     0  0
 28 30  1  0     0  0
 30 31  1  0     0  0
 27 32  1  0     0  0
 32 33  1  0     0  0
 16 34  1  6     0  0
  2 35  1  0     0  0
M  END
