 
 
 
 42 47  0  0  1  0  0  0  0  0999 V2000
   25.3450  -18.1677    0.0000 N   0  0  3  0  0  0  0  0  0  0  0  0
   26.7482  -18.1677    0.0000 C   0  0  3  0  0  0  0  0  0  0  0  0
   24.5030  -19.2903    0.0000 C   0  0  0  0  0  0  0  0  0  0  0  0
   24.5030  -17.0452    0.0000 C   0  0  0  0  0  0  0  0  0  0  0  0
   27.4498  -16.9048    0.0000 C   0  0  0  0  0  0  0  0  0  0  0  0
   27.4498  -19.3605    0.0000 C   0  0  0  0  0  0  0  0  0  0  0  0
   23.1700  -18.8693    0.0000 C   0  0  0  0  0  0  0  0  0  0  0  0
   24.9942  -20.6234    0.0000 O   0  0  0  0  0  0  0  0  0  0  0  0
   23.1700  -17.4661    0.0000 C   0  0  0  0  0  0  0  0  0  0  0  0
   28.8530  -16.9048    0.0000 N   0  0  0  0  0  0  0  0  0  0  0  0
   26.7482  -15.7121    0.0000 O   0  0  0  0  0  0  0  0  0  0  0  0
   28.9232  -19.3605    0.0000 C   0  0  0  0  0  0  0  0  0  0  0  0
   21.9772  -19.5710    0.0000 C   0  0  0  0  0  0  0  0  0  0  0  0
   21.9772  -16.7645    0.0000 C   0  0  0  0  0  0  0  0  0  0  0  0
   29.5547  -18.0976    0.0000 C   0  0  0  0  0  0  0  0  0  0  0  0
   20.7845  -18.8693    0.0000 C   0  0  0  0  0  0  0  0  0  0  0  0
   20.7845  -17.4661    0.0000 C   0  0  0  0  0  0  0  0  0  0  0  0
   30.9579  -18.0976    0.0000 O   0  0  0  0  0  0  0  0  0  0  0  0
   21.9772  -15.3613    0.0000 O   0  0  0  0  0  0  0  0  0  0  0  0
   20.7845  -14.6597    0.0000 C   0  0  0  0  0  0  0  0  0  0  0  0
   19.5918  -15.3613    0.0000 C   0  0  0  0  0  0  0  0  0  0  0  0
   19.5918  -16.7645    0.0000 C   0  0  0  0  0  0  0  0  0  0  0  0
   18.3990  -17.4661    0.0000 C   0  0  0  0  0  0  0  0  0  0  0  0
   17.2063  -16.7645    0.0000 C   0  0  0  0  0  0  0  0  0  0  0  0
   17.2063  -15.3613    0.0000 C   0  0  0  0  0  0  0  0  0  0  0  0
   18.3990  -14.6597    0.0000 C   0  0  0  0  0  0  0  0  0  0  0  0
   16.0135  -17.4661    0.0000 C   0  0  0  0  0  0  0  0  0  0  0  0
   14.8208  -16.7645    0.0000 N   0  0  0  0  0  0  0  0  0  0  0  0
   13.5579  -17.3960    0.0000 C   0  0  0  0  0  0  0  0  0  0  0  0
   12.3652  -16.6943    0.0000 C   0  0  0  0  0  0  0  0  0  0  0  0
   12.3652  -15.2911    0.0000 N   0  0  0  0  0  0  0  0  0  0  0  0
   13.6281  -14.5895    0.0000 C   0  0  0  0  0  0  0  0  0  0  0  0
   14.8208  -15.3613    0.0000 C   0  0  0  0  0  0  0  0  0  0  0  0
   11.1724  -14.5895    0.0000 C   0  0  0  0  0  0  0  0  0  0  0  0
    9.9797  -15.2911    0.0000 C   0  0  0  0  0  0  0  0  0  0  0  0
    8.7168  -14.5895    0.0000 C   0  0  0  0  0  0  0  0  0  0  0  0
    8.7168  -13.1863    0.0000 C   0  0  0  0  0  0  0  0  0  0  0  0
    9.9095  -12.4847    0.0000 C   0  0  0  0  0  0  0  0  0  0  0  0
   11.1724  -13.1863    0.0000 C   0  0  0  0  0  0  0  0  0  0  0  0
   12.3652  -12.4847    0.0000 F   0  0  0  0  0  0  0  0  0  0  0  0
    7.5240  -12.4847    0.0000 C   0  0  0  0  0  0  0  0  0  0  0  0
    6.3313  -11.7831    0.0000 N   0  0  0  0  0  0  0  0  0  0  0  0
  2  1  1  6     0  0
  1  3  1  0     0  0
  1  4  1  0     0  0
  2  5  1  0     0  0
  2  6  1  0     0  0
  3  7  1  0     0  0
  3  8  2  0     0  0
  4  9  1  0     0  0
  5 10  1  0     0  0
  5 11  2  0     0  0
  6 12  1  0     0  0
  7 13  1  0     0  0
  9 14  1  0     0  0
 10 15  1  0     0  0
 13 16  2  0     0  0
 14 17  2  0     0  0
 15 18  2  0     0  0
  7  9  2  0     0  0
 12 15  1  0     0  0
 16 17  1  0     0  0
 14 19  1  0     0  0
 20 21  1  0     0  0
 20 19  1  0     0  0
 21 22  2  0     0  0
 22 23  1  0     0  0
 23 24  2  0     0  0
 24 25  1  0     0  0
 25 26  2  0     0  0
 21 26  1  0     0  0
 24 27  1  0     0  0
 27 28  1  0     0  0
 28 29  1  0     0  0
 29 30  1  0     0  0
 30 31  1  0     0  0
 31 32  1  0     0  0
 32 33  1  0     0  0
 28 33  1  0     0  0
 31 34  1  0     0  0
 34 35  2  0     0  0
 35 36  1  0     0  0
 36 37  2  0     0  0
 37 38  1  0     0  0
 38 39  2  0     0  0
 34 39  1  0     0  0
 39 40  1  0     0  0
 37 41  1  0     0  0
 41 42  3  0     0  0
M  END
