 
     RDKit          2D

192214  0  0  1  0  0  0  0  0999 V2000
   19.1800  -14.8400    0.0000 C   0  0  0  0  0  0  0  0  0  0  0  0
   19.1800  -16.2400    0.0000 C   0  0  0  0  0  0  0  0  0  0  0  0
   20.3700  -16.9400    0.0000 C   0  0  0  0  0  0  0  0  0  0  0  0
   20.3700  -14.1400    0.0000 C   0  0  0  0  0  0  0  0  0  0  0  0
   21.5600  -14.8400    0.0000 C   0  0  0  0  0  0  0  0  0  0  0  0
   21.5600  -16.2400    0.0000 C   0  0  0  0  0  0  0  0  0  0  0  0
   22.7500  -16.9400    0.0000 C   0  0  0  0  0  0  0  0  0  0  0  0
   24.0100  -16.2400    0.0000 C   0  0  0  0  0  0  0  0  0  0  0  0
   24.0100  -14.8400    0.0000 C   0  0  0  0  0  0  0  0  0  0  0  0
   22.8200  -14.1400    0.0000 O   0  0  0  0  0  0  0  0  0  0  0  0
   25.2000  -14.1400    0.0000 C   0  0  0  0  0  0  0  0  0  0  0  0
   26.3900  -14.8400    0.0000 C   0  0  0  0  0  0  0  0  0  0  0  0
   27.5800  -14.2100    0.0000 C   0  0  0  0  0  0  0  0  0  0  0  0
   27.5800  -12.8100    0.0000 C   0  0  0  0  0  0  0  0  0  0  0  0
   26.3900  -12.1100    0.0000 C   0  0  0  0  0  0  0  0  0  0  0  0
   25.2000  -12.8100    0.0000 C   0  0  0  0  0  0  0  0  0  0  0  0
   20.3700  -18.3400    0.0000 O   0  0  0  0  0  0  0  0  0  0  0  0
   17.9900  -14.1400    0.0000 O   0  0  0  0  0  0  0  0  0  0  0  0
   22.7500  -18.3400    0.0000 O   0  0  0  0  0  0  0  0  0  0  0  0
   28.7700  -12.1100    0.0000 O   0  0  0  0  0  0  0  0  0  0  0  0
   28.7700  -14.8400    0.0000 O   0  0  0  0  0  0  0  0  0  0  0  0
   25.3400  -16.9400    0.0000 O   0  0  0  0  0  0  0  0  0  0  0  0
   26.8100  -18.2700    0.0000 C   0  0  0  0  0  0  0  0  0  0  0  0
   26.8100  -19.6000    0.0000 O   0  0  0  0  0  0  0  0  0  0  0  0
   28.0000  -20.3000    0.0000 C   0  0  0  0  0  0  0  0  0  0  0  0
   29.1900  -19.6000    0.0000 C   0  0  0  0  0  0  0  0  0  0  0  0
   29.1900  -18.2700    0.0000 C   0  0  0  0  0  0  0  0  0  0  0  0
   28.0000  -17.5700    0.0000 C   0  0  0  0  0  0  0  0  0  0  0  0
   28.0000  -16.1700    0.0000 O   0  0  0  0  0  0  0  0  0  0  0  0
   30.3800  -17.5700    0.0000 O   0  0  0  0  0  0  0  0  0  0  0  0
   30.3800  -20.3000    0.0000 O   0  0  0  0  0  0  0  0  0  0  0  0
   27.9300  -21.7000    0.0000 C   0  0  0  0  0  0  0  0  0  0  0  0
   26.7400  -22.4000    0.0000 O   0  0  0  0  0  0  0  0  0  0  0  0
   25.5500  -21.7000    0.0000 C   0  0  0  0  0  0  0  0  0  0  0  0
   25.5500  -20.3000    0.0000 O   0  0  0  0  0  0  0  0  0  0  0  0
   24.3600  -19.6000    0.0000 C   0  0  0  0  0  0  0  0  0  0  0  0
   23.1700  -20.3000    0.0000 C   0  0  0  0  0  0  0  0  0  0  0  0
   23.1700  -21.7000    0.0000 C   0  0  0  0  0  0  0  0  0  0  0  0
   24.3600  -22.4000    0.0000 C   0  0  0  0  0  0  0  0  0  0  0  0
   24.3600  -18.2000    0.0000 C   0  0  0  0  0  0  0  0  0  0  0  0
   21.9800  -19.6000    0.0000 O   0  0  0  0  0  0  0  0  0  0  0  0
   21.9800  -22.4000    0.0000 O   0  0  0  0  0  0  0  0  0  0  0  0
   24.3600  -23.8000    0.0000 O   0  0  0  0  0  0  0  0  0  0  0  0
   26.6817  -17.0089    0.0000 C   0  0  0  0  0  0  0  0  0  0  0  0
   26.6583  -18.3703    0.0000 C   0  0  0  0  0  0  0  0  0  0  0  0
   25.4606  -16.3077    0.0000 C   0  0  0  0  0  0  0  0  0  0  0  0
   27.8852  -16.3194    0.0000 C   0  0  0  0  0  0  0  0  0  0  0  0
   25.4489  -19.0889    0.0000 C   0  0  0  0  0  0  0  0  0  0  0  0
   27.8794  -19.1063    0.0000 C   0  0  0  0  0  0  0  0  0  0  0  0
   24.2394  -17.0089    0.0000 C   0  0  0  0  0  0  0  0  0  0  0  0
   25.4548  -14.9055    0.0000 C   0  0  0  0  0  0  0  0  0  0  0  0
   29.0306  -17.0206    0.0000 C   0  0  0  0  0  0  0  0  0  0  0  0
   27.8852  -14.9172    0.0000 C   0  0  0  0  0  0  0  0  0  0  0  0
   24.2454  -18.4052    0.0000 C   0  0  0  0  0  0  0  0  0  0  0  0
   25.4665  -20.4911    0.0000 C   0  0  0  0  0  0  0  0  0  0  0  0
   29.0830  -18.4111    0.0000 C   0  0  0  0  0  0  0  0  0  0  0  0
   27.8735  -20.5145    0.0000 C   0  0  0  0  0  0  0  0  0  0  0  0
   23.0300  -16.3077    0.0000 C   0  0  0  0  0  0  0  0  0  0  0  0
   26.6758  -14.2043    0.0000 C   0  0  0  0  0  0  0  0  0  0  0  0
   24.2454  -14.1986    0.0000 C   0  0  0  0  0  0  0  0  0  0  0  0
   30.3100  -16.3370    0.0000 C   0  0  0  0  0  0  0  0  0  0  0  0
   29.1123  -14.2220    0.0000 C   0  0  0  0  0  0  0  0  0  0  0  0
   23.0417  -19.1240    0.0000 C   0  0  0  0  0  0  0  0  0  0  0  0
   26.6700  -21.1863    0.0000 C   0  0  0  0  0  0  0  0  0  0  0  0
   24.2628  -21.2214    0.0000 C   0  0  0  0  0  0  0  0  0  0  0  0
   30.2866  -19.1123    0.0000 C   0  0  0  0  0  0  0  0  0  0  0  0
   29.0772  -21.1923    0.0000 C   0  0  0  0  0  0  0  0  0  0  0  0
   23.0300  -14.9055    0.0000 C   0  0  0  0  0  0  0  0  0  0  0  0
   21.8088  -17.0148    0.0000 C   0  0  0  0  0  0  0  0  0  0  0  0
   26.6875  -12.8021    0.0000 O   0  0  0  0  0  0  0  0  0  0  0  0
   24.2454  -12.7963    0.0000 O   0  0  0  0  0  0  0  0  0  0  0  0
   30.3217  -14.9405    0.0000 C   0  0  0  0  0  0  0  0  0  0  0  0
   31.5195  -17.0497    0.0000 O   0  0  0  0  0  0  0  0  0  0  0  0
   29.1297  -12.8197    0.0000 O   0  0  0  0  0  0  0  0  0  0  0  0
   23.0300  -20.5262    0.0000 C   0  0  0  0  0  0  0  0  0  0  0  0
   21.8148  -18.4169    0.0000 C   0  0  0  0  0  0  0  0  0  0  0  0
   26.6583  -22.5945    0.0000 O   0  0  0  0  0  0  0  0  0  0  0  0
   24.2862  -22.6237    0.0000 O   0  0  0  0  0  0  0  0  0  0  0  0
   30.2807  -20.5028    0.0000 C   0  0  0  0  0  0  0  0  0  0  0  0
   31.5018  -18.4111    0.0000 O   0  0  0  0  0  0  0  0  0  0  0  0
   29.0772  -22.5945    0.0000 O   0  0  0  0  0  0  0  0  0  0  0  0
   24.2721  -18.2310    0.0000 C   0  0  0  0  0  0  0  0  0  0  0  0
   24.2779  -16.8330    0.0000 C   0  0  0  0  0  0  0  0  0  0  0  0
   25.4711  -18.9269    0.0000 C   0  0  0  0  0  0  0  0  0  0  0  0
   23.0614  -18.9269    0.0000 C   0  0  0  0  0  0  0  0  0  0  0  0
   25.4885  -16.1429    0.0000 C   0  0  0  0  0  0  0  0  0  0  0  0
   23.0674  -16.1371    0.0000 C   0  0  0  0  0  0  0  0  0  0  0  0
   26.6875  -18.2367    0.0000 C   0  0  0  0  0  0  0  0  0  0  0  0
   25.4594  -20.3306    0.0000 C   0  0  0  0  0  0  0  0  0  0  0  0
   21.8567  -18.2310    0.0000 C   0  0  0  0  0  0  0  0  0  0  0  0
   23.0614  -20.3189    0.0000 C   0  0  0  0  0  0  0  0  0  0  0  0
   26.6992  -16.8390    0.0000 C   0  0  0  0  0  0  0  0  0  0  0  0
   25.5002  -14.7392    0.0000 C   0  0  0  0  0  0  0  0  0  0  0  0
   21.8508  -16.8273    0.0000 C   0  0  0  0  0  0  0  0  0  0  0  0
   23.0731  -14.7275    0.0000 C   0  0  0  0  0  0  0  0  0  0  0  0
   27.8924  -18.9503    0.0000 C   0  0  0  0  0  0  0  0  0  0  0  0
   24.2662  -21.0148    0.0000 C   0  0  0  0  0  0  0  0  0  0  0  0
   26.6641  -21.0324    0.0000 C   0  0  0  0  0  0  0  0  0  0  0  0
   20.6518  -18.9269    0.0000 C   0  0  0  0  0  0  0  0  0  0  0  0
   21.8508  -21.0090    0.0000 C   0  0  0  0  0  0  0  0  0  0  0  0
   27.9216  -16.1605    0.0000 C   0  0  0  0  0  0  0  0  0  0  0  0
   24.2955  -14.0257    0.0000 C   0  0  0  0  0  0  0  0  0  0  0  0
   26.7226  -14.0433    0.0000 C   0  0  0  0  0  0  0  0  0  0  0  0
   20.6343  -16.1371    0.0000 C   0  0  0  0  0  0  0  0  0  0  0  0
   21.8567  -14.0199    0.0000 C   0  0  0  0  0  0  0  0  0  0  0  0
   27.8807  -20.3540    0.0000 C   0  0  0  0  0  0  0  0  0  0  0  0
   29.1205  -18.2601    0.0000 C   0  0  0  0  0  0  0  0  0  0  0  0
   24.2604  -22.4244    0.0000 O   0  0  0  0  0  0  0  0  0  0  0  0
   26.6466  -22.4418    0.0000 O   0  0  0  0  0  0  0  0  0  0  0  0
   20.6460  -20.3129    0.0000 C   0  0  0  0  0  0  0  0  0  0  0  0
   19.4354  -18.2133    0.0000 O   0  0  0  0  0  0  0  0  0  0  0  0
   21.8508  -22.4127    0.0000 O   0  0  0  0  0  0  0  0  0  0  0  0
   27.9333  -14.7626    0.0000 C   0  0  0  0  0  0  0  0  0  0  0  0
   29.1322  -16.8741    0.0000 C   0  0  0  0  0  0  0  0  0  0  0  0
   24.3013  -12.6222    0.0000 O   0  0  0  0  0  0  0  0  0  0  0  0
   26.7343  -12.6396    0.0000 O   0  0  0  0  0  0  0  0  0  0  0  0
   20.6343  -14.7275    0.0000 C   0  0  0  0  0  0  0  0  0  0  0  0
   19.4177  -16.8330    0.0000 O   0  0  0  0  0  0  0  0  0  0  0  0
   21.8567  -12.6162    0.0000 O   0  0  0  0  0  0  0  0  0  0  0  0
   30.3312  -18.9737    0.0000 O   0  0  0  0  0  0  0  0  0  0  0  0
   28.7174  -15.4932    0.0000 C   0  0  0  0  0  0  0  0  0  0  0  0
   28.7115  -16.8875    0.0000 C   0  0  0  0  0  0  0  0  0  0  0  0
   29.9249  -14.7988    0.0000 C   0  0  0  0  0  0  0  0  0  0  0  0
   27.5097  -14.7988    0.0000 O   0  0  0  0  0  0  0  0  0  0  0  0
   27.5038  -17.5818    0.0000 C   0  0  0  0  0  0  0  0  0  0  0  0
   29.9075  -17.5935    0.0000 O   0  0  0  0  0  0  0  0  0  0  0  0
   29.9249  -13.4102    0.0000 C   0  0  0  0  0  0  0  0  0  0  0  0
   31.1269  -15.4932    0.0000 C   0  0  0  0  0  0  0  0  0  0  0  0
   26.3078  -15.4872    0.0000 C   0  0  0  0  0  0  0  0  0  0  0  0
   26.3020  -16.8817    0.0000 C   0  0  0  0  0  0  0  0  0  0  0  0
   27.4921  -18.9762    0.0000 O   0  0  0  0  0  0  0  0  0  0  0  0
   31.3836  -18.4102    0.0000 C   0  0  0  0  0  0  0  0  0  0  0  0
   31.1269  -12.7043    0.0000 C   0  0  0  0  0  0  0  0  0  0  0  0
   32.3346  -14.7988    0.0000 C   0  0  0  0  0  0  0  0  0  0  0  0
   25.1001  -14.7930    0.0000 C   0  0  0  0  0  0  0  0  0  0  0  0
   25.1001  -17.5759    0.0000 C   0  0  0  0  0  0  0  0  0  0  0  0
   31.3895  -19.7988    0.0000 O   0  0  0  0  0  0  0  0  0  0  0  0
   32.5796  -17.7160    0.0000 C   0  0  0  0  0  0  0  0  0  0  0  0
   32.3346  -13.4102    0.0000 C   0  0  0  0  0  0  0  0  0  0  0  0
   31.1210  -11.3158    0.0000 O   0  0  0  0  0  0  0  0  0  0  0  0
   23.8866  -15.4872    0.0000 C   0  0  0  0  0  0  0  0  0  0  0  0
   23.8924  -16.8875    0.0000 C   0  0  0  0  0  0  0  0  0  0  0  0
   25.1001  -18.9704    0.0000 O   0  0  0  0  0  0  0  0  0  0  0  0
   32.5972  -20.4872    0.0000 C   0  0  0  0  0  0  0  0  0  0  0  0
   33.7873  -18.3985    0.0000 C   0  0  0  0  0  0  0  0  0  0  0  0
   32.5738  -16.3215    0.0000 O   0  0  0  0  0  0  0  0  0  0  0  0
   33.5481  -12.7043    0.0000 O   0  0  0  0  0  0  0  0  0  0  0  0
   22.6730  -14.7988    0.0000 O   0  0  0  0  0  0  0  0  0  0  0  0
   33.7932  -19.7871    0.0000 C   0  0  0  0  0  0  0  0  0  0  0  0
   32.6029  -21.8758    0.0000 C   0  0  0  0  0  0  0  0  0  0  0  0
   34.9950  -17.7043    0.0000 O   0  0  0  0  0  0  0  0  0  0  0  0
   35.0007  -20.4815    0.0000 O   0  0  0  0  0  0  0  0  0  0  0  0
   31.4012  -22.5759    0.0000 O   0  0  0  0  0  0  0  0  0  0  0  0
   27.5041  -17.2956    0.0000 C   0  0  0  0  0  0  0  0  0  0  0  0
   28.4784  -18.2642    0.0000 C   0  0  0  0  0  0  0  0  0  0  0  0
   27.4984  -19.2267    0.0000 C   0  0  0  0  0  0  0  0  0  0  0  0
   26.1332  -17.2956    0.0000 C   0  0  0  0  0  0  0  0  0  0  0  0
   28.6884  -16.6014    0.0000 C   0  0  0  0  0  0  0  0  0  0  0  0
   28.4784  -19.6351    0.0000 C   0  0  0  0  0  0  0  0  0  0  0  0
   29.6627  -17.5698    0.0000 C   0  0  0  0  0  0  0  0  0  0  0  0
   29.6627  -18.9526    0.0000 C   0  0  0  0  0  0  0  0  0  0  0  0
   26.1332  -20.6094    0.0000 C   0  0  0  0  0  0  0  0  0  0  0  0
   26.3374  -18.7308    0.0000 O   0  0  0  0  0  0  0  0  0  0  0  0
   25.1589  -18.2642    0.0000 C   0  0  0  0  0  0  0  0  0  0  0  0
   26.1273  -15.9188    0.0000 O   0  0  0  0  0  0  0  0  0  0  0  0
   28.6884  -15.2305    0.0000 C   0  0  0  0  0  0  0  0  0  0  0  0
   30.0711  -16.6014    0.0000 O   0  0  0  0  0  0  0  0  0  0  0  0
   27.5041  -20.6094    0.0000 C   0  0  0  0  0  0  0  0  0  0  0  0
   29.6627  -20.3235    0.0000 C   0  0  0  0  0  0  0  0  0  0  0  0
   30.8528  -18.2525    0.0000 C   0  0  0  0  0  0  0  0  0  0  0  0
   25.1589  -19.6351    0.0000 C   0  0  0  0  0  0  0  0  0  0  0  0
   26.1273  -21.9803    0.0000 C   0  0  0  0  0  0  0  0  0  0  0  0
   23.9629  -17.5758    0.0000 C   0  0  0  0  0  0  0  0  0  0  0  0
   29.8727  -14.5305    0.0000 C   0  0  0  0  0  0  0  0  0  0  0  0
   27.4924  -14.5362    0.0000 C   0  0  0  0  0  0  0  0  0  0  0  0
   29.6568  -21.7003    0.0000 C   0  0  0  0  0  0  0  0  0  0  0  0
   32.0371  -17.5641    0.0000 C   0  0  0  0  0  0  0  0  0  0  0  0
   23.9629  -20.3177    0.0000 O   0  0  0  0  0  0  0  0  0  0  0  0
   25.1472  -22.9546    0.0000 C   0  0  0  0  0  0  0  0  0  0  0  0
   23.9513  -16.1989    0.0000 C   0  0  0  0  0  0  0  0  0  0  0  0
   30.8470  -22.3828    0.0000 C   0  0  0  0  0  0  0  0  0  0  0  0
   33.2330  -18.2466    0.0000 C   0  0  0  0  0  0  0  0  0  0  0  0
   25.1356  -24.3314    0.0000 C   0  0  0  0  0  0  0  0  0  0  0  0
   22.7553  -15.5105    0.0000 C   0  0  0  0  0  0  0  0  0  0  0  0
   30.8411  -23.7596    0.0000 C   0  0  0  0  0  0  0  0  0  0  0  0
   32.0313  -21.6944    0.0000 C   0  0  0  0  0  0  0  0  0  0  0  0
   34.4173  -17.5524    0.0000 C   0  0  0  0  0  0  0  0  0  0  0  0
   33.2213  -19.6176    0.0000 C   0  0  0  0  0  0  0  0  0  0  0  0
   23.9455  -25.0139    0.0000 C   0  0  0  0  0  0  0  0  0  0  0  0
   26.3315  -25.0198    0.0000 C   0  0  0  0  0  0  0  0  0  0  0  0
   22.7496  -14.1337    0.0000 C   0  0  0  0  0  0  0  0  0  0  0  0
   21.5653  -16.1930    0.0000 C   0  0  0  0  0  0  0  0  0  0  0  0
  9 10  1  0
 13 21  1  0
 10  5  1  0
  8 22  1  0
 23 22  1  1
  9 11  1  0
  1  2  2  0
  2  3  1  0
  3  6  2  0
  5  4  2  0
 23 24  1  0
 24 25  1  0
 25 26  1  0
 26 27  1  0
 27 28  1  0
 28 23  1  0
  4  1  1  0
 28 29  1  6
 11 12  2  0
 27 30  1  1
 12 13  1  0
 26 31  1  6
 13 14  2  0
 25 32  1  1
 14 15  1  0
 32 33  1  0
 15 16  2  0
 34 33  1  1
 16 11  1  0
  5  6  1  0
  3 17  1  0
  6  7  1  0
  1 18  1  0
 34 35  1  0
 35 36  1  0
 36 37  1  0
 37 38  1  0
 38 39  1  0
 39 34  1  0
  7  8  1  0
 36 40  1  6
  7 19  2  0
 37 41  1  1
  8  9  2  0
 38 42  1  6
 14 20  1  0
 39 43  1  6
 44 45  2  0
 44 46  1  0
 44 47  1  0
 45 48  1  0
 45 49  1  0
 46 50  1  0
 46 51  2  0
 47 52  2  0
 47 53  1  0
 48 54  2  0
 48 55  1  0
 49 56  2  0
 49 57  1  0
 50 58  2  0
 51 59  1  0
 51 60  1  0
 52 61  1  0
 53 62  2  0
 54 63  1  0
 55 64  1  0
 55 65  2  0
 56 66  1  0
 57 67  2  0
 58 68  1  0
 58 69  1  0
 59 70  2  0
 60 71  1  0
 61 72  2  0
 61 73  1  0
 62 74  1  0
 63 75  2  0
 63 76  1  0
 64 77  2  0
 65 78  1  0
 66 79  2  0
 66 80  1  0
 67 81  1  0
 50 54  1  0
 52 56  1  0
 53 59  1  0
 57 64  1  0
 60 68  2  0
 62 72  1  0
 65 75  1  0
 67 79  1  0
 82 83  2  0
 82 84  1  0
 82 85  1  0
 83 86  1  0
 83 87  1  0
 84 88  1  0
 84 89  2  0
 85 90  2  0
 85 91  1  0
 86 92  2  0
 86 93  1  0
 87 94  2  0
 87 95  1  0
 88 96  2  0
 89 97  1  0
 89 98  1  0
 90 99  1  0
 91100  2  0
 92101  1  0
 93102  1  0
 93103  2  0
 94104  1  0
 95105  2  0
 96106  1  0
 96107  1  0
 97108  2  0
 98109  1  0
 99110  2  0
 99111  1  0
100112  1  0
101113  2  0
101114  1  0
102115  2  0
103116  1  0
104117  2  0
104118  1  0
105119  1  0
107120  1  0
 88 92  1  0
 90 94  1  0
 91 97  1  0
 95102  1  0
 98106  2  0
100110  1  0
103113  1  0
105117  1  0
121122  2  0
121123  1  0
121124  1  0
122125  1  0
122126  1  0
123127  2  0
123128  1  0
124129  1  0
125130  1  0
125131  2  0
132126  1  1
127133  1  0
128134  2  0
129135  2  0
130136  2  0
132137  1  0
132138  1  0
133139  2  0
133140  1  0
135141  1  0
136142  1  0
136143  1  0
137144  1  0
138145  1  0
138146  1  6
139147  1  0
141148  1  0
144149  1  0
144150  1  1
145151  1  1
149152  1  1
150153  1  0
129130  1  0
134139  1  0
141142  2  0
145149  1  0
154155  1  0
154156  1  0
154157  1  0
154158  1  1
155159  1  0
155160  1  0
155161  1  1
162156  1  0
156163  2  0
157164  2  0
157165  1  0
158166  1  0
158167  2  0
159168  1  0
159169  1  1
160170  1  0
162171  1  0
162172  1  1
164173  1  0
166174  1  0
166175  1  0
169176  1  0
170177  1  0
171178  2  0
172179  1  0
173180  1  0
176181  2  3
177182  2  3
179183  2  3
180184  2  3
181185  1  0
181186  1  0
182187  1  0
182188  1  0
183189  1  0
183190  1  0
184191  1  0
184192  1  0
162168  1  0
164171  1  0
M  END
