 
     RDKit          2D

 22 15  0  0  0  0  0  0  0  0999 V2000
   23.8765  -15.9945    0.0000 C   0  0  0  0  0  0  0  0  0  0  0  0
   22.6653  -16.6908    0.0000 C   0  0  0  0  0  0  0  0  0  0  0  0
   25.0878  -16.6848    0.0000 C   0  0  0  0  0  0  0  0  0  0  0  0
   24.5670  -14.7773    0.0000 C   0  0  0  0  0  0  0  0  0  0  0  0
   23.1684  -14.7773    0.0000 O   0  0  0  0  0  0  0  0  0  0  0  0
   21.4598  -16.0003    0.0000 C   0  0  0  0  0  0  0  0  0  0  0  0
   25.0761  -18.0835    0.0000 C   0  0  0  0  0  0  0  0  0  0  0  0
   23.8589  -13.5603    0.0000 O   0  0  0  0  0  0  0  0  0  0  0  0
   25.9714  -14.7773    0.0000 O   0  0  0  0  0  0  0  0  0  0  0  0
   20.2487  -16.7025    0.0000 O   0  0  0  0  0  0  0  0  0  0  0  0
   21.5181  -14.6019    0.0000 O   0  0  0  0  0  0  0  0  0  0  0  0
   26.2874  -18.7856    0.0000 O   0  0  0  0  0  0  0  0  0  0  0  0
   23.8589  -18.7797    0.0000 O   0  0  0  0  0  0  0  0  0  0  0  0
   18.4800  -16.7300    0.0000 K   0  0  0  0  0 15  0  0  0  0  0  0
   25.7600  -13.5800    0.0000 K   0  0  0  0  0 15  0  0  0  0  0  0
   27.9300  -18.7600    0.0000 K   0  0  0  0  0 15  0  0  0  0  0  0
   29.8900  -15.9600    0.0000 O   0  0  0  0  0  0  0  0  0  0  0  0
   22.5164  -15.1473    0.0000 O   0  0  0  0  0  0  0  0  0  0  0  0
   22.5164  -16.5406    0.0000 C   0  0  0  0  0  0  0  0  0  0  0  0
   23.7703  -17.1908    0.0000 O   0  0  0  0  0  0  0  0  0  0  0  0
   21.3087  -17.2372    0.0000 O   0  0  0  0  0  0  0  0  0  0  0  0
   25.4200  -17.2372    0.0000 K   0  0  0  0  0 15  0  0  0  0  0  0
  1  2  1  0
  1  3  1  0
  1  4  1  0
  1  5  1  0
  2  6  1  0
  3  7  1  0
  4  8  1  0
  4  9  2  0
  6 10  1  0
  6 11  2  0
  7 12  1  0
  7 13  2  0
 18 19  2  0
 19 20  1  0
 19 21  1  0
M  CHG  8   8  -1  10  -1  12  -1  14   1  15   1  16   1  20  -1  22   1
M  END
