 
 
 
 28 28  0  0  1  0  0  0  0  0999 V2000
   10.8914  -13.9128    0.0000 C   0  0  0  0  0  0  0  0  0  0  0  0
   12.1562  -14.6155    0.0000 C   0  0  0  0  0  0  0  0  0  0  0  0
    9.6969  -14.6155    0.0000 C   0  0  0  0  0  0  0  0  0  0  0  0
   10.8914  -12.5075    0.0000 C   0  0  0  0  0  0  0  0  0  0  0  0
   12.1562  -16.0208    0.0000 C   0  0  0  0  0  0  0  0  0  0  0  0
   13.3507  -16.7234    0.0000 C   0  0  0  0  0  0  0  0  0  0  0  0
   14.5452  -16.0208    0.0000 C   0  0  0  0  0  0  0  0  0  0  0  0
   14.5452  -14.6155    0.0000 C   0  0  0  0  0  0  0  0  0  0  0  0
   13.3507  -13.9128    0.0000 C   0  0  0  0  0  0  0  0  0  0  0  0
   15.8100  -16.7234    0.0000 C   0  0  0  0  0  0  0  0  0  0  0  0
   17.0045  -16.0208    0.0000 C   0  0  0  0  0  0  0  0  0  0  0  0
   18.1990  -16.7234    0.0000 N   0  0  0  0  0  0  0  0  0  0  0  0
   17.0045  -14.6155    0.0000 O   0  0  0  0  0  0  0  0  0  0  0  0
   19.3935  -16.0208    0.0000 C   0  0  0  0  0  0  0  0  0  0  0  0
   20.5880  -16.7234    0.0000 C   0  0  0  0  0  0  0  0  0  0  0  0
   19.3935  -14.6155    0.0000 C   0  0  0  0  0  0  0  0  0  0  0  0
   20.5880  -18.1287    0.0000 C   0  0  0  0  0  0  0  0  0  0  0  0
   21.7825  -18.8314    0.0000 C   0  0  0  0  0  0  0  0  0  0  0  0
   23.0473  -18.1287    0.0000 C   0  0  0  0  0  0  0  0  0  0  0  0
   23.0473  -16.7234    0.0000 C   0  0  0  0  0  0  0  0  0  0  0  0
   21.7825  -16.0208    0.0000 N   0  0  0  0  0  0  0  0  0  0  0  0
   24.2418  -18.8314    0.0000 O   0  0  0  0  0  0  0  0  0  0  0  0
   25.4363  -18.1287    0.0000 C   0  0  0  0  0  0  0  0  0  0  0  0
   26.6308  -18.8314    0.0000 C   0  0  0  0  0  0  0  0  0  0  0  0
   27.6146  -17.8477    0.0000 F   0  0  0  0  0  0  0  0  0  0  0  0
   25.6471  -19.8151    0.0000 F   0  0  0  0  0  0  0  0  0  0  0  0
   27.6146  -19.8151    0.0000 F   0  0  0  0  0  0  0  0  0  0  0  0
   27.3000  -12.3900    0.0000 Cl  0  0  0  0  0  0  0  0  0  0  0  0
  1  2  1  0     0  0
  1  3  1  0     0  0
  1  4  1  0     0  0
  2  5  2  0     0  0
  5  6  1  0     0  0
  6  7  2  0     0  0
  7  8  1  0     0  0
  8  9  2  0     0  0
  2  9  1  0     0  0
  7 10  1  0     0  0
 10 11  1  0     0  0
 11 12  1  0     0  0
 11 13  2  0     0  0
 12 14  1  0     0  0
 14 15  1  0     0  0
 14 16  1  6     0  0
 15 17  2  0     0  0
 17 18  1  0     0  0
 18 19  2  0     0  0
 19 20  1  0     0  0
 20 21  2  0     0  0
 15 21  1  0     0  0
 19 22  1  0     0  0
 22 23  1  0     0  0
 23 24  1  0     0  0
 24 25  1  0     0  0
 24 26  1  0     0  0
 24 27  1  0     0  0
M  END
