 
 
 
 31 34  0  0  0  0  0  0  0  0999 V2000
   20.1600  -15.5400    0.0000 C   0  0  0  0  0  0  0  0  0  0  0  0
   19.0400  -14.6300    0.0000 S   0  0  0  0  0  0  0  0  0  0  0  0
   17.7100  -14.9800    0.0000 C   0  0  0  0  0  0  0  0  0  0  0  0
   17.0800  -16.2400    0.0000 C   0  0  0  0  0  0  0  0  0  0  0  0
   20.1600  -16.9400    0.0000 C   0  0  0  0  0  0  0  0  0  0  0  0
   17.7100  -17.5000    0.0000 C   0  0  0  0  0  0  0  0  0  0  0  0
   19.0400  -17.7800    0.0000 N   0  0  0  0  0  0  0  0  0  0  0  0
   21.3724  -17.6400    0.0000 C   0  0  0  0  0  0  0  0  0  0  0  0
   22.5849  -16.9400    0.0000 C   0  0  0  0  0  0  0  0  0  0  0  0
   22.5849  -15.5400    0.0000 C   0  0  0  0  0  0  0  0  0  0  0  0
   21.3724  -14.8400    0.0000 C   0  0  0  0  0  0  0  0  0  0  0  0
   16.9386  -13.8117    0.0000 C   0  0  0  0  0  0  0  0  0  0  0  0
   15.5411  -13.8956    0.0000 C   0  0  0  0  0  0  0  0  0  0  0  0
   14.9111  -15.1556    0.0000 C   0  0  0  0  0  0  0  0  0  0  0  0
   15.6825  -16.3239    0.0000 C   0  0  0  0  0  0  0  0  0  0  0  0
   18.6777  -13.2777    0.0000 O   0  0  0  0  0  0  0  0  0  0  0  0
   19.7400  -13.4176    0.0000 O   0  0  0  0  0  0  0  0  0  0  0  0
   16.8546  -18.6083    0.0000 O   0  0  0  0  0  0  0  0  0  0  0  0
   23.8160  -17.6510    0.0000 C   0  0  0  0  0  0  0  0  0  0  0  0
   25.0212  -16.9553    0.0000 N   0  0  0  0  0  0  0  0  0  0  0  0
   23.8157  -19.0399    0.0000 O   0  0  0  0  0  0  0  0  0  0  0  0
   26.2035  -17.6381    0.0000 C   0  0  0  0  0  0  0  0  0  0  0  0
   27.3975  -16.9488    0.0000 C   0  0  0  0  0  0  0  0  0  0  0  0
   28.6502  -17.5066    0.0000 C   0  0  0  0  0  0  0  0  0  0  0  0
   29.5679  -16.4875    0.0000 N   0  0  0  0  0  0  0  0  0  0  0  0
   28.8822  -15.2999    0.0000 C   0  0  0  0  0  0  0  0  0  0  0  0
   27.5409  -15.5850    0.0000 S   0  0  0  0  0  0  0  0  0  0  0  0
   29.4453  -14.0364    0.0000 C   0  0  0  0  0  0  0  0  0  0  0  0
   28.2329  -13.3364    0.0000 F   0  0  0  0  0  0  0  0  0  0  0  0
   30.6578  -14.7364    0.0000 F   0  0  0  0  0  0  0  0  0  0  0  0
   30.1453  -12.8240    0.0000 F   0  0  0  0  0  0  0  0  0  0  0  0
  3  4  1  0     0  0
  1  5  1  0     0  0
  4  6  1  0     0  0
  2  3  1  0     0  0
  5  7  1  0     0  0
  1  2  1  0     0  0
  6  7  1  0     0  0
  5  8  2  0     0  0
  8  9  1  0     0  0
  9 10  2  0     0  0
 10 11  1  0     0  0
  1 11  2  0     0  0
  3 12  2  0     0  0
 12 13  1  0     0  0
 13 14  2  0     0  0
 14 15  1  0     0  0
  4 15  2  0     0  0
  2 16  2  0     0  0
  2 17  2  0     0  0
  6 18  2  0     0  0
  9 19  1  0     0  0
 19 20  1  0     0  0
 19 21  2  0     0  0
 20 22  1  0     0  0
 22 23  1  0     0  0
 23 24  2  0     0  0
 24 25  1  0     0  0
 25 26  2  0     0  0
 26 27  1  0     0  0
 23 27  1  0     0  0
 26 28  1  0     0  0
 28 29  1  0     0  0
 28 30  1  0     0  0
 28 31  1  0     0  0
M  END
