 
 
 
 27 28  0  0  1  0  0  0  0  0999 V2000
    6.0900  -16.4500    0.0000 C   0  0  0  0  0  0  0  0  0  0  0  0
    7.3024  -17.1500    0.0000 C   0  0  0  0  0  0  0  0  0  0  0  0
    4.8776  -17.1500    0.0000 C   0  0  0  0  0  0  0  0  0  0  0  0
    6.0900  -15.0500    0.0000 C   0  0  0  0  0  0  0  0  0  0  0  0
    7.3024  -18.5498    0.0000 C   0  0  0  0  0  0  0  0  0  0  0  0
    8.5149  -19.2498    0.0000 C   0  0  0  0  0  0  0  0  0  0  0  0
    9.7273  -18.5498    0.0000 C   0  0  0  0  0  0  0  0  0  0  0  0
    9.7273  -17.1500    0.0000 C   0  0  0  0  0  0  0  0  0  0  0  0
    8.5149  -16.4500    0.0000 C   0  0  0  0  0  0  0  0  0  0  0  0
   10.9418  -19.2510    0.0000 C   0  0  0  0  0  0  0  0  0  0  0  0
   12.1382  -18.5601    0.0000 C   0  0  0  0  0  0  0  0  0  0  0  0
   13.3251  -19.2453    0.0000 N   0  0  0  0  0  0  0  0  0  0  0  0
   12.1383  -17.1503    0.0000 O   0  0  0  0  0  0  0  0  0  0  0  0
   14.5166  -18.5572    0.0000 C   0  0  0  0  0  0  0  0  0  0  0  0
   15.7060  -19.2439    0.0000 C   0  0  0  0  0  0  0  0  0  0  0  0
   14.5166  -17.1503    0.0000 C   0  0  0  0  0  0  0  0  0  0  0  0
   15.7061  -20.6498    0.0000 C   0  0  0  0  0  0  0  0  0  0  0  0
   16.9186  -21.3496    0.0000 C   0  0  0  0  0  0  0  0  0  0  0  0
   18.1310  -20.6495    0.0000 C   0  0  0  0  0  0  0  0  0  0  0  0
   18.1308  -19.2436    0.0000 C   0  0  0  0  0  0  0  0  0  0  0  0
   16.9183  -18.5437    0.0000 N   0  0  0  0  0  0  0  0  0  0  0  0
   19.3430  -21.3490    0.0000 O   0  0  0  0  0  0  0  0  0  0  0  0
   20.5376  -20.6590    0.0000 C   0  0  0  0  0  0  0  0  0  0  0  0
   21.7255  -21.3446    0.0000 C   0  0  0  0  0  0  0  0  0  0  0  0
   22.7155  -20.3547    0.0000 F   0  0  0  0  0  0  0  0  0  0  0  0
   20.7356  -22.3346    0.0000 F   0  0  0  0  0  0  0  0  0  0  0  0
   22.7155  -22.3346    0.0000 F   0  0  0  0  0  0  0  0  0  0  0  0
  1  2  1  0     0  0
  1  3  1  0     0  0
  1  4  1  0     0  0
  2  5  2  0     0  0
  5  6  1  0     0  0
  6  7  2  0     0  0
  7  8  1  0     0  0
  8  9  2  0     0  0
  2  9  1  0     0  0
  7 10  1  0     0  0
 10 11  1  0     0  0
 11 12  1  0     0  0
 11 13  2  0     0  0
 12 14  1  0     0  0
 14 15  1  0     0  0
 14 16  1  6     0  0
 15 17  2  0     0  0
 17 18  1  0     0  0
 18 19  2  0     0  0
 19 20  1  0     0  0
 20 21  2  0     0  0
 15 21  1  0     0  0
 19 22  1  0     0  0
 22 23  1  0     0  0
 23 24  1  0     0  0
 24 25  1  0     0  0
 24 26  1  0     0  0
 24 27  1  0     0  0
M  END
