 
     RDKit          2D

198226  0  0  1  0  0  0  0  0999 V2000
   25.6965  -16.3575    0.0000 C   0  0  0  0  0  0  0  0  0  0  0  0
   24.5867  -17.1666    0.0000 C   0  0  0  0  0  0  0  0  0  0  0  0
   26.6096  -15.3460    0.0000 C   0  0  0  0  0  0  0  0  0  0  0  0
   26.3785  -17.5424    0.0000 C   0  0  0  0  0  0  0  0  0  0  0  0
   25.2803  -15.0282    0.0000 C   0  0  0  0  0  0  0  0  0  0  0  0
   23.4597  -16.3517    0.0000 C   0  0  0  0  0  0  0  0  0  0  0  0
   26.7663  -16.5207    0.0000 O   0  0  0  0  0  0  0  0  0  0  0  0
   24.5924  -18.5481    0.0000 C   0  0  0  0  0  0  0  0  0  0  0  0
   27.9852  -15.3460    0.0000 C   0  0  0  0  0  0  0  0  0  0  0  0
   27.8639  -15.9010    0.0000 C   0  0  0  0  0  0  0  0  0  0  0  0
   26.1819  -14.0398    0.0000 C   0  0  0  0  0  0  0  0  0  0  0  0
   27.7194  -17.2650    0.0000 C   0  0  0  0  0  0  0  0  0  0  0  0
   25.8120  -18.8082    0.0000 O   0  0  0  0  0  0  0  0  0  0  0  0
   23.8874  -15.0282    0.0000 C   0  0  0  0  0  0  0  0  0  0  0  0
   22.0668  -16.3517    0.0000 C   0  0  0  0  0  0  0  0  0  0  0  0
   22.9554  -17.6869    0.0000 O   0  0  0  0  0  0  0  0  0  0  0  0
   23.5175  -19.4209    0.0000 O   0  0  0  0  0  0  0  0  0  0  0  0
   28.4071  -14.0341    0.0000 O   0  0  0  0  0  0  0  0  0  0  0  0
   29.1932  -15.5367    0.0000 C   0  0  0  0  0  0  0  0  0  0  0  0
   27.2974  -13.2307    0.0000 C   0  0  0  0  0  0  0  0  0  0  0  0
   26.1762  -12.6526    0.0000 O   0  0  0  0  0  0  0  0  0  0  0  0
   22.7602  -14.2074    0.0000 O   0  0  0  0  0  0  0  0  0  0  0  0
   21.6275  -15.0282    0.0000 C   0  0  0  0  0  0  0  0  0  0  0  0
   21.6969  -17.6869    0.0000 C   0  0  0  0  0  0  0  0  0  0  0  0
   30.1488  -16.9085    0.0000 C   0  0  0  0  0  0  0  0  0  0  0  0
   30.3665  -14.8028    0.0000 C   0  0  0  0  0  0  0  0  0  0  0  0
   30.5514  -15.8894    0.0000 C   0  0  0  0  0  0  0  0  0  0  0  0
   27.2974  -11.8435    0.0000 O   0  0  0  0  0  0  0  0  0  0  0  0
   20.3154  -14.6063    0.0000 O   0  0  0  0  0  0  0  0  0  0  0  0
   25.7193  -16.3556    0.0000 C   0  0  0  0  0  0  0  0  0  0  0  0
   24.6014  -17.1707    0.0000 C   0  0  0  0  0  0  0  0  0  0  0  0
   26.6392  -15.3368    0.0000 C   0  0  0  0  0  0  0  0  0  0  0  0
   26.4063  -17.5550    0.0000 C   0  0  0  0  0  0  0  0  0  0  0  0
   25.3001  -15.0165    0.0000 C   0  0  0  0  0  0  0  0  0  0  0  0
   23.4661  -16.3498    0.0000 C   0  0  0  0  0  0  0  0  0  0  0  0
   26.8024  -16.5189    0.0000 O   0  0  0  0  0  0  0  0  0  0  0  0
   24.5372  -18.5622    0.0000 C   0  0  0  0  0  0  0  0  0  0  0  0
   28.0248  -15.3368    0.0000 C   0  0  0  0  0  0  0  0  0  0  0  0
   27.9026  -15.8956    0.0000 C   0  0  0  0  0  0  0  0  0  0  0  0
   26.2142  -14.0210    0.0000 C   0  0  0  0  0  0  0  0  0  0  0  0
   27.7571  -17.2697    0.0000 C   0  0  0  0  0  0  0  0  0  0  0  0
   25.8356  -18.8242    0.0000 O   0  0  0  0  0  0  0  0  0  0  0  0
   23.8968  -15.0165    0.0000 C   0  0  0  0  0  0  0  0  0  0  0  0
   25.0147  -15.9715    0.0000 O   0  0  0  0  0  0  0  0  0  0  0  0
   22.0688  -16.3498    0.0000 C   0  0  0  0  0  0  0  0  0  0  0  0
   22.8192  -17.6946    0.0000 O   0  0  0  0  0  0  0  0  0  0  0  0
   23.5244  -19.4413    0.0000 O   0  0  0  0  0  0  0  0  0  0  0  0
   28.4557  -14.0151    0.0000 O   0  0  0  0  0  0  0  0  0  0  0  0
   29.2417  -15.5289    0.0000 C   0  0  0  0  0  0  0  0  0  0  0  0
   27.3319  -13.2058    0.0000 C   0  0  0  0  0  0  0  0  0  0  0  0
   26.2025  -12.6237    0.0000 O   0  0  0  0  0  0  0  0  0  0  0  0
   22.7615  -14.1898    0.0000 O   0  0  0  0  0  0  0  0  0  0  0  0
   21.6263  -15.0165    0.0000 C   0  0  0  0  0  0  0  0  0  0  0  0
   21.6962  -17.6946    0.0000 C   0  0  0  0  0  0  0  0  0  0  0  0
   30.2084  -16.9092    0.0000 C   0  0  0  0  0  0  0  0  0  0  0  0
   30.4236  -14.7896    0.0000 C   0  0  0  0  0  0  0  0  0  0  0  0
   30.6098  -15.8840    0.0000 C   0  0  0  0  0  0  0  0  0  0  0  0
   27.3319  -11.8085    0.0000 O   0  0  0  0  0  0  0  0  0  0  0  0
   20.2988  -14.5915    0.0000 O   0  0  0  0  0  0  0  0  0  0  0  0
   25.6843  -16.3737    0.0000 C   0  0  0  0  0  0  0  0  0  0  0  0
   26.6111  -15.3539    0.0000 C   0  0  0  0  0  0  0  0  0  0  0  0
   24.5711  -17.1898    0.0000 C   0  0  0  0  0  0  0  0  0  0  0  0
   26.3721  -17.5686    0.0000 C   0  0  0  0  0  0  0  0  0  0  0  0
   25.2646  -15.0332    0.0000 C   0  0  0  0  0  0  0  0  0  0  0  0
   27.9982  -15.3539    0.0000 C   0  0  0  0  0  0  0  0  0  0  0  0
   27.8757  -15.9133    0.0000 C   0  0  0  0  0  0  0  0  0  0  0  0
   26.1797  -14.0307    0.0000 C   0  0  0  0  0  0  0  0  0  0  0  0
   23.4346  -16.3680    0.0000 C   0  0  0  0  0  0  0  0  0  0  0  0
   26.6984  -16.3913    0.0000 O   0  0  0  0  0  0  0  0  0  0  0  0
   24.5711  -18.5827    0.0000 C   0  0  0  0  0  0  0  0  0  0  0  0
   27.7242  -17.2829    0.0000 C   0  0  0  0  0  0  0  0  0  0  0  0
   25.8009  -18.8391    0.0000 O   0  0  0  0  0  0  0  0  0  0  0  0
   23.8658  -15.0332    0.0000 C   0  0  0  0  0  0  0  0  0  0  0  0
   24.9092  -16.0591    0.0000 O   0  0  0  0  0  0  0  0  0  0  0  0
   28.4237  -14.0307    0.0000 O   0  0  0  0  0  0  0  0  0  0  0  0
   29.2105  -15.5403    0.0000 C   0  0  0  0  0  0  0  0  0  0  0  0
   27.2988  -13.2147    0.0000 C   0  0  0  0  0  0  0  0  0  0  0  0
   26.1680  -12.6319    0.0000 O   0  0  0  0  0  0  0  0  0  0  0  0
   22.0299  -16.3680    0.0000 C   0  0  0  0  0  0  0  0  0  0  0  0
   22.7816  -17.7085    0.0000 O   0  0  0  0  0  0  0  0  0  0  0  0
   23.4927  -19.4628    0.0000 O   0  0  0  0  0  0  0  0  0  0  0  0
   29.0764  -17.7436    0.0000 O   0  0  0  0  0  0  0  0  0  0  0  0
   22.7235  -14.2055    0.0000 O   0  0  0  0  0  0  0  0  0  0  0  0
   30.4582  -16.5718    0.0000 C   0  0  0  0  0  0  0  0  0  0  0  0
   30.3994  -14.5259    0.0000 C   0  0  0  0  0  0  0  0  0  0  0  0
   30.5801  -15.5457    0.0000 C   0  0  0  0  0  0  0  0  0  0  0  0
   27.2988  -11.8218    0.0000 O   0  0  0  0  0  0  0  0  0  0  0  0
   21.5870  -15.0332    0.0000 C   0  0  0  0  0  0  0  0  0  0  0  0
   21.6568  -17.7085    0.0000 C   0  0  0  0  0  0  0  0  0  0  0  0
   20.2580  -14.6078    0.0000 O   0  0  0  0  0  0  0  0  0  0  0  0
   25.6556  -16.3727    0.0000 C   0  0  0  0  0  0  0  0  0  0  0  0
   24.5506  -17.1753    0.0000 C   0  0  0  0  0  0  0  0  0  0  0  0
   26.5685  -15.3550    0.0000 C   0  0  0  0  0  0  0  0  0  0  0  0
   26.3360  -17.5592    0.0000 C   0  0  0  0  0  0  0  0  0  0  0  0
   25.2368  -15.0410    0.0000 C   0  0  0  0  0  0  0  0  0  0  0  0
   23.4166  -16.3669    0.0000 C   0  0  0  0  0  0  0  0  0  0  0  0
   26.6559  -16.3960    0.0000 O   0  0  0  0  0  0  0  0  0  0  0  0
   24.5506  -18.5652    0.0000 C   0  0  0  0  0  0  0  0  0  0  0  0
   27.9469  -15.3550    0.0000 C   0  0  0  0  0  0  0  0  0  0  0  0
   27.8248  -15.9133    0.0000 C   0  0  0  0  0  0  0  0  0  0  0  0
   26.1383  -14.0465    0.0000 C   0  0  0  0  0  0  0  0  0  0  0  0
   27.6794  -17.2741    0.0000 C   0  0  0  0  0  0  0  0  0  0  0  0
   25.7718  -18.8210    0.0000 O   0  0  0  0  0  0  0  0  0  0  0  0
   23.8468  -15.0410    0.0000 C   0  0  0  0  0  0  0  0  0  0  0  0
   22.0208  -16.3669    0.0000 C   0  0  0  0  0  0  0  0  0  0  0  0
   22.7760  -17.6986    0.0000 O   0  0  0  0  0  0  0  0  0  0  0  0
   23.4746  -19.4317    0.0000 O   0  0  0  0  0  0  0  0  0  0  0  0
   28.3772  -14.0406    0.0000 O   0  0  0  0  0  0  0  0  0  0  0  0
   29.1508  -15.5411    0.0000 C   0  0  0  0  0  0  0  0  0  0  0  0
   27.2607  -13.2381    0.0000 C   0  0  0  0  0  0  0  0  0  0  0  0
   26.1324  -12.6566    0.0000 O   0  0  0  0  0  0  0  0  0  0  0  0
   29.1570  -17.7339    0.0000 O   0  0  0  0  0  0  0  0  0  0  0  0
   22.7187  -14.2151    0.0000 O   0  0  0  0  0  0  0  0  0  0  0  0
   21.5904  -15.0410    0.0000 C   0  0  0  0  0  0  0  0  0  0  0  0
   21.6543  -17.6986    0.0000 C   0  0  0  0  0  0  0  0  0  0  0  0
   30.3967  -16.4943    0.0000 C   0  0  0  0  0  0  0  0  0  0  0  0
   30.3254  -14.5342    0.0000 C   0  0  0  0  0  0  0  0  0  0  0  0
   30.5116  -15.5516    0.0000 C   0  0  0  0  0  0  0  0  0  0  0  0
   27.2607  -11.8540    0.0000 O   0  0  0  0  0  0  0  0  0  0  0  0
   20.2702  -14.6163    0.0000 O   0  0  0  0  0  0  0  0  0  0  0  0
   25.6200  -17.6400    0.0000 C   0  0  0  0  0  0  0  0  0  0  0  0
   26.5300  -16.5900    0.0000 C   0  0  0  0  0  0  0  0  0  0  0  0
   24.5000  -18.4800    0.0000 C   0  0  0  0  0  0  0  0  0  0  0  0
   26.3200  -18.8300    0.0000 C   0  0  0  0  0  0  0  0  0  0  0  0
   25.2000  -16.3100    0.0000 C   0  0  0  0  0  0  0  0  0  0  0  0
   27.9300  -16.5900    0.0000 C   0  0  0  0  0  0  0  0  0  0  0  0
   27.7900  -17.1500    0.0000 C   0  0  0  0  0  0  0  0  0  0  0  0
   26.1100  -15.2600    0.0000 C   0  0  0  0  0  0  0  0  0  0  0  0
   23.3800  -17.6400    0.0000 C   0  0  0  0  0  0  0  0  0  0  0  0
   26.6000  -17.6400    0.0000 O   0  0  0  0  0  0  0  0  0  0  0  0
   24.5000  -19.8100    0.0000 C   0  0  0  0  0  0  0  0  0  0  0  0
   27.6500  -18.5500    0.0000 C   0  0  0  0  0  0  0  0  0  0  0  0
   25.7600  -20.0900    0.0000 O   0  0  0  0  0  0  0  0  0  0  0  0
   23.8000  -16.3100    0.0000 C   0  0  0  0  0  0  0  0  0  0  0  0
   24.7800  -17.1500    0.0000 O   0  0  0  0  0  0  0  0  0  0  0  0
   28.3500  -15.2600    0.0000 O   0  0  0  0  0  0  0  0  0  0  0  0
   29.1200  -16.8000    0.0000 C   0  0  0  0  0  0  0  0  0  0  0  0
   27.2300  -14.4900    0.0000 C   0  0  0  0  0  0  0  0  0  0  0  0
   26.1100  -13.8600    0.0000 O   0  0  0  0  0  0  0  0  0  0  0  0
   21.9800  -17.6400    0.0000 C   0  0  0  0  0  0  0  0  0  0  0  0
   23.4500  -20.7200    0.0000 O   0  0  0  0  0  0  0  0  0  0  0  0
   28.9800  -18.8300    0.0000 O   0  0  0  0  0  0  0  0  0  0  0  0
   22.6800  -15.4700    0.0000 O   0  0  0  0  0  0  0  0  0  0  0  0
   29.8900  -17.9900    0.0000 C   0  0  0  0  0  0  0  0  0  0  0  0
   30.3100  -16.1000    0.0000 C   0  0  0  0  0  0  0  0  0  0  0  0
   30.5200  -17.1500    0.0000 C   0  0  0  0  0  0  0  0  0  0  0  0
   27.2300  -13.0900    0.0000 O   0  0  0  0  0  0  0  0  0  0  0  0
   21.4900  -16.3100    0.0000 C   0  0  0  0  0  0  0  0  0  0  0  0
   21.5600  -18.9700    0.0000 C   0  0  0  0  0  0  0  0  0  0  0  0
   20.1600  -15.8900    0.0000 O   0  0  0  0  0  0  0  0  0  0  0  0
   27.1658  -17.8319    0.0000 C   0  0  0  0  0  0  0  0  0  0  0  0
   25.9442  -18.5564    0.0000 C   0  0  0  0  0  0  0  0  0  0  0  0
   28.2527  -18.5564    0.0000 C   0  0  0  0  0  0  0  0  0  0  0  0
   28.5685  -17.8783    0.0000 C   0  0  0  0  0  0  0  0  0  0  0  0
   26.6573  -16.3764    0.0000 C   0  0  0  0  0  0  0  0  0  0  0  0
   26.3883  -19.9009    0.0000 C   0  0  0  0  0  0  0  0  0  0  0  0
   25.6698  -19.5378    0.0000 C   0  0  0  0  0  0  0  0  0  0  0  0
   24.5066  -18.1066    0.0000 C   0  0  0  0  0  0  0  0  0  0  0  0
   27.8087  -19.9009    0.0000 C   0  0  0  0  0  0  0  0  0  0  0  0
   29.6146  -18.1766    0.0000 C   0  0  0  0  0  0  0  0  0  0  0  0
   29.1700  -19.9822    0.0000 O   0  0  0  0  0  0  0  0  0  0  0  0
   27.1658  -18.8371    0.0000 O   0  0  0  0  0  0  0  0  0  0  0  0
   28.9483  -16.3706    0.0000 O   0  0  0  0  0  0  0  0  0  0  0  0
   27.7970  -15.5406    0.0000 C   0  0  0  0  0  0  0  0  0  0  0  0
   25.9383  -15.1316    0.0000 O   0  0  0  0  0  0  0  0  0  0  0  0
   25.1552  -20.6080    0.0000 O   0  0  0  0  0  0  0  0  0  0  0  0
   24.7233  -19.1885    0.0000 O   0  0  0  0  0  0  0  0  0  0  0  0
   23.8518  -19.3982    0.0000 C   0  0  0  0  0  0  0  0  0  0  0  0
   30.8355  -19.6782    0.0000 C   0  0  0  0  0  0  0  0  0  0  0  0
   30.9880  -18.1948    0.0000 C   0  0  0  0  0  0  0  0  0  0  0  0
   30.8479  -16.7578    0.0000 C   0  0  0  0  0  0  0  0  0  0  0  0
   27.7853  -14.1147    0.0000 O   0  0  0  0  0  0  0  0  0  0  0  0
   22.4316  -19.3922    0.0000 O   0  0  0  0  0  0  0  0  0  0  0  0
   22.0055  -19.5369    0.0000 C   0  0  0  0  0  0  0  0  0  0  0  0
   22.0055  -20.9395    0.0000 C   0  0  0  0  0  0  0  0  0  0  0  0
   23.2240  -21.6445    0.0000 C   0  0  0  0  0  0  0  0  0  0  0  0
   24.4286  -20.9395    0.0000 C   0  0  0  0  0  0  0  0  0  0  0  0
   24.4286  -19.5369    0.0000 C   0  0  0  0  0  0  0  0  0  0  0  0
   23.2240  -18.8390    0.0000 C   0  0  0  0  0  0  0  0  0  0  0  0
   25.6450  -21.6437    0.0000 C   0  0  0  0  0  0  0  0  0  0  0  0
   26.8551  -20.9326    0.0000 C   0  0  0  0  0  0  0  0  0  0  0  0
   28.0676  -21.6374    0.0000 C   0  0  0  0  0  0  0  0  0  0  0  0
   29.2801  -20.9326    0.0000 C   0  0  0  0  0  0  0  0  0  0  0  0
   30.4925  -21.6374    0.0000 C   0  0  0  0  0  0  0  0  0  0  0  0
   31.7050  -20.9326    0.0000 C   0  0  0  0  0  0  0  0  0  0  0  0
   32.9104  -21.6374    0.0000 C   0  0  0  0  0  0  0  0  0  0  0  0
   34.1229  -20.9326    0.0000 C   0  0  0  0  0  0  0  0  0  0  0  0
   34.1158  -19.5298    0.0000 C   0  0  0  0  0  0  0  0  0  0  0  0
   32.8965  -18.8380    0.0000 C   0  0  0  0  0  0  0  0  0  0  0  0
   31.6909  -19.5298    0.0000 C   0  0  0  0  0  0  0  0  0  0  0  0
   30.4784  -18.8319    0.0000 C   0  0  0  0  0  0  0  0  0  0  0  0
   29.2659  -19.5298    0.0000 C   0  0  0  0  0  0  0  0  0  0  0  0
   28.0536  -18.8319    0.0000 C   0  0  0  0  0  0  0  0  0  0  0  0
   23.2259  -17.4362    0.0000 O   0  0  0  0  0  0  0  0  0  0  0  0
   28.0517  -17.4362    0.0000 C   0  0  0  0  0  0  0  0  0  0  0  0
   25.6379  -18.8399    0.0000 C   0  0  0  0  0  0  0  0  0  0  0  0
   26.8460  -19.5387    0.0000 O   0  0  0  0  0  0  0  0  0  0  0  0
   25.6389  -17.4441    0.0000 O   0  0  0  0  0  0  0  0  0  0  0  0
  1  2  1  0
  1  3  1  0
  1  4  1  0
  1  5  1  0
  2  6  1  0
  2  7  1  1
  2  8  1  0
  3  9  1  0
  3 10  1  0
  3 11  1  0
  4 12  1  1
  4 13  1  0
 14  5  1  1
  6 15  1  0
  6 16  1  6
  8 17  2  0
  9 18  1  1
 10 19  1  6
 11 20  1  0
 11 21  1  6
 14 22  1  0
 15 23  1  0
 15 24  1  6
 19 25  1  0
 19 26  1  0
 19 27  1  0
 20 28  2  0
 23 29  2  0
  6 14  1  0
  9  7  1  0
  8 13  1  0
 10 12  1  0
 18 20  1  0
 22 23  1  0
 30 31  1  0
 30 32  1  0
 30 33  1  0
 30 34  1  0
 31 35  1  0
 31 36  1  1
 31 37  1  0
 32 38  1  0
 32 39  1  0
 32 40  1  0
 33 41  1  1
 33 42  1  0
 34 43  1  0
 34 44  1  6
 35 45  1  0
 35 46  1  6
 37 47  2  0
 38 48  1  1
 39 49  1  6
 40 50  1  0
 40 51  1  6
 43 52  1  1
 45 53  1  0
 45 54  1  6
 49 55  1  0
 49 56  1  0
 49 57  1  0
 50 58  2  0
 53 59  2  0
 35 43  1  0
 38 36  1  0
 37 42  1  0
 39 41  1  0
 48 50  1  0
 52 53  1  0
 60 61  1  0
 60 62  1  0
 60 63  1  0
 60 64  1  0
 61 65  1  0
 61 66  1  0
 61 67  1  0
 62 68  1  0
 62 69  1  1
 62 70  1  0
 63 71  1  0
 63 72  1  1
 64 73  1  0
 64 74  1  6
 65 75  1  1
 66 76  1  6
 67 77  1  0
 67 78  1  6
 68 79  1  0
 68 80  1  6
 70 81  2  0
 71 82  1  1
 73 83  1  1
 76 84  1  0
 76 85  1  0
 76 86  1  0
 77 87  2  0
 79 88  1  0
 79 89  1  6
 88 90  2  0
 65 69  1  0
 66 71  1  0
 68 73  1  0
 70 72  1  0
 75 77  1  0
 83 88  1  0
 91 92  1  0
 91 93  1  0
 91 94  1  0
 91 95  1  0
 92 96  1  0
 92 97  1  1
 92 98  1  0
 93 99  1  0
 93100  1  0
 93101  1  0
 94102  1  0
 94103  1  1
104 95  1  1
 96105  1  0
 96106  1  6
 98107  2  0
 99108  1  1
100109  1  6
101110  1  0
101111  1  6
102112  1  1
104113  1  0
105114  1  0
105115  1  6
109116  1  0
109117  1  0
109118  1  0
110119  2  0
114120  2  0
 96104  1  0
 99 97  1  0
 98103  1  0
100102  1  0
108110  1  0
113114  1  0
121122  1  0
121123  1  0
121124  1  0
121125  1  0
122126  1  0
122127  1  0
122128  1  0
123129  1  0
123130  1  1
123131  1  0
124132  1  0
124133  1  1
125134  1  0
125135  1  6
126136  1  1
127137  1  6
128138  1  0
128139  1  6
129140  1  1
131141  2  0
132142  1  1
134143  1  1
137144  1  0
137145  1  0
137146  1  0
138147  2  0
140148  1  0
140149  1  6
148150  2  0
126130  1  0
127132  1  0
129134  1  0
131133  1  0
136138  1  0
143148  1  0
151152  1  0
151153  1  0
151154  1  0
151155  1  0
152156  1  0
152157  1  0
152158  1  6
153159  1  0
153160  1  0
153161  1  1
154162  1  1
154163  1  0
155164  1  0
155165  1  6
156166  1  0
157167  2  0
158168  1  0
160169  1  0
160170  1  0
160171  1  0
164172  2  0
168173  2  0
156159  1  6
157162  1  0
163164  1  0
166168  1  0
179174  2  0
185186  1  0
186187  1  0
177180  1  0
187188  2  0
174175  1  0
188189  1  0
180181  1  0
189190  1  0
175176  2  0
190191  1  0
181182  1  0
191192  1  0
176177  1  0
192193  1  0
182183  1  0
177178  2  0
179194  1  0
193195  1  0
183184  1  0
178196  1  0
178179  1  0
196197  2  0
184185  1  0
196198  1  0
M  END
