 
 
 
 31 36  0  0  0  0  0  0  0  0999 V2000
   13.3700  -14.0000    0.0000 C   0  0  0  0  0  0  0  0  0  0  0  0
   13.3700  -15.4000    0.0000 C   0  0  0  0  0  0  0  0  0  0  0  0
   14.5600  -16.1000    0.0000 N   0  0  0  0  0  0  0  0  0  0  0  0
   15.8200  -15.4000    0.0000 N   0  0  0  0  0  0  0  0  0  0  0  0
   15.8200  -14.0000    0.0000 C   0  0  0  0  0  0  0  0  0  0  0  0
   14.5600  -13.3000    0.0000 C   0  0  0  0  0  0  0  0  0  0  0  0
   17.1500  -15.8200    0.0000 C   0  0  0  0  0  0  0  0  0  0  0  0
   17.9200  -14.7000    0.0000 N   0  0  0  0  0  0  0  0  0  0  0  0
   17.1500  -13.5800    0.0000 N   0  0  0  0  0  0  0  0  0  0  0  0
   12.1800  -16.1000    0.0000 C   0  0  0  0  0  0  0  0  0  0  0  0
   11.0600  -15.3300    0.0000 C   0  0  0  0  0  0  0  0  0  0  0  0
    9.8700  -16.2400    0.0000 N   0  0  0  0  0  0  0  0  0  0  0  0
   10.3600  -17.5000    0.0000 N   0  0  0  0  0  0  0  0  0  0  0  0
   11.8300  -17.4300    0.0000 C   0  0  0  0  0  0  0  0  0  0  0  0
    8.5400  -15.7500    0.0000 C   0  0  0  0  0  0  0  0  0  0  0  0
   17.6400  -17.1500    0.0000 C   0  0  0  0  0  0  0  0  0  0  0  0
   19.0400  -17.4300    0.0000 C   0  0  0  0  0  0  0  0  0  0  0  0
   16.7300  -18.2000    0.0000 F   0  0  0  0  0  0  0  0  0  0  0  0
   16.2400  -16.8700    0.0000 F   0  0  0  0  0  0  0  0  0  0  0  0
   19.4600  -18.7600    0.0000 C   0  0  0  0  0  0  0  0  0  0  0  0
   20.8600  -19.0400    0.0000 C   0  0  0  0  0  0  0  0  0  0  0  0
   21.7700  -17.9900    0.0000 C   0  0  0  0  0  0  0  0  0  0  0  0
   21.2800  -16.6600    0.0000 C   0  0  0  0  0  0  0  0  0  0  0  0
   19.9500  -16.3800    0.0000 C   0  0  0  0  0  0  0  0  0  0  0  0
   23.1700  -17.9200    0.0000 N   0  0  0  0  0  0  0  0  0  0  0  0
   23.5900  -16.5900    0.0000 N   0  0  0  0  0  0  0  0  0  0  0  0
   22.4700  -15.7500    0.0000 C   0  0  0  0  0  0  0  0  0  0  0  0
   18.5500  -19.8100    0.0000 F   0  0  0  0  0  0  0  0  0  0  0  0
   24.9200  -16.1700    0.0000 C   0  0  0  0  0  0  0  0  0  0  0  0
    7.1400  -15.7500    0.0000 C   0  0  0  0  0  0  0  0  0  0  0  0
    7.8400  -14.5600    0.0000 C   0  0  0  0  0  0  0  0  0  0  0  0
  1  2  1  0     0  0
  2  3  2  0     0  0
  3  4  1  0     0  0
  4  5  1  0     0  0
  5  6  1  0     0  0
  1  6  2  0     0  0
  4  7  1  0     0  0
  7  8  2  0     0  0
  8  9  1  0     0  0
  5  9  2  0     0  0
  2 10  1  0     0  0
 10 11  2  0     0  0
 11 12  1  0     0  0
 12 13  1  0     0  0
 13 14  2  0     0  0
 10 14  1  0     0  0
 12 15  1  0     0  0
  7 16  1  0     0  0
 16 17  1  0     0  0
 16 18  1  0     0  0
 16 19  1  0     0  0
 17 20  1  0     0  0
 20 21  2  0     0  0
 21 22  1  0     0  0
 22 23  1  0     0  0
 23 24  1  0     0  0
 17 24  2  0     0  0
 22 25  2  0     0  0
 25 26  1  0     0  0
 26 27  1  0     0  0
 23 27  2  0     0  0
 20 28  1  0     0  0
 26 29  1  0     0  0
 30 15  1  0     0  0
 15 31  1  0     0  0
 31 30  1  0     0  0
M  END
