 
 
 
 27 30  0  0  0  0  0  0  0  0999 V2000
   22.7500  -16.3100    0.0000 C   0  0  0  0  0  0  0  0  0  0  0  0
   22.7500  -17.7100    0.0000 C   0  0  0  0  0  0  0  0  0  0  0  0
   21.5600  -18.4100    0.0000 C   0  0  0  0  0  0  0  0  0  0  0  0
   20.3000  -17.7100    0.0000 N   0  0  0  0  0  0  0  0  0  0  0  0
   20.3000  -16.3100    0.0000 C   0  0  0  0  0  0  0  0  0  0  0  0
   21.5600  -15.6100    0.0000 C   0  0  0  0  0  0  0  0  0  0  0  0
   23.9400  -15.6100    0.0000 C   0  0  0  0  0  0  0  0  0  0  0  0
   25.2000  -16.3100    0.0000 C   0  0  0  0  0  0  0  0  0  0  0  0
   25.2000  -17.7100    0.0000 C   0  0  0  0  0  0  0  0  0  0  0  0
   23.9400  -18.4100    0.0000 C   0  0  0  0  0  0  0  0  0  0  0  0
   21.5600  -19.8100    0.0000 O   0  0  0  0  0  0  0  0  0  0  0  0
   19.1100  -18.4100    0.0000 C   0  0  0  0  0  0  0  0  0  0  0  0
   21.5600  -14.2100    0.0000 C   0  0  0  0  0  0  0  0  0  0  0  0
   22.7500  -13.5100    0.0000 C   0  0  0  0  0  0  0  0  0  0  0  0
   22.7500  -12.1100    0.0000 C   0  0  0  0  0  0  0  0  0  0  0  0
   21.5600  -11.4100    0.0000 C   0  0  0  0  0  0  0  0  0  0  0  0
   20.3700  -12.1100    0.0000 C   0  0  0  0  0  0  0  0  0  0  0  0
   20.3700  -13.5100    0.0000 C   0  0  0  0  0  0  0  0  0  0  0  0
   19.1800  -14.2100    0.0000 O   0  0  0  0  0  0  0  0  0  0  0  0
   17.9900  -13.5100    0.0000 C   0  0  0  0  0  0  0  0  0  0  0  0
   16.8000  -14.2100    0.0000 C   0  0  0  0  0  0  0  0  0  0  0  0
   15.4000  -14.2100    0.0000 C   0  0  0  0  0  0  0  0  0  0  0  0
   16.1000  -15.4000    0.0000 C   0  0  0  0  0  0  0  0  0  0  0  0
   23.9400  -11.4100    0.0000 S   0  0  0  0  0  0  0  0  0  0  0  0
   24.6400  -12.6000    0.0000 O   0  0  0  0  0  0  0  0  0  0  0  0
   23.2400  -10.2200    0.0000 O   0  0  0  0  0  0  0  0  0  0  0  0
   25.2000  -10.7100    0.0000 C   0  0  0  0  0  0  0  0  0  0  0  0
  1  2  1  0     0  0
  2  3  1  0     0  0
  3  4  1  0     0  0
  4  5  1  0     0  0
  5  6  2  0     0  0
  1  6  1  0     0  0
  1  7  2  0     0  0
  7  8  1  0     0  0
  8  9  2  0     0  0
  9 10  1  0     0  0
  2 10  2  0     0  0
  3 11  2  0     0  0
  4 12  1  0     0  0
  6 13  1  0     0  0
 13 14  2  0     0  0
 14 15  1  0     0  0
 15 16  2  0     0  0
 16 17  1  0     0  0
 17 18  2  0     0  0
 13 18  1  0     0  0
 18 19  1  0     0  0
 19 20  1  0     0  0
 20 21  1  0     0  0
 21 22  1  0     0  0
 22 23  1  0     0  0
 23 21  1  0     0  0
 15 24  1  0     0  0
 24 25  2  0     0  0
 24 26  2  0     0  0
 24 27  1  0     0  0
M  END
