 
 
 
 32 33  0  0  1  0  0  0  0  0999 V2000
    8.4000  -14.5600    0.0000 C   0  0  0  0  0  0  0  0  0  0  0  0
    9.5900  -13.8600    0.0000 N   0  0  0  0  0  0  0  0  0  0  0  0
    7.2100  -13.8600    0.0000 C   0  0  0  0  0  0  0  0  0  0  0  0
    8.4000  -15.9600    0.0000 O   0  0  0  0  0  0  0  0  0  0  0  0
   10.7800  -14.5600    0.0000 C   0  0  0  0  0  0  0  0  0  0  0  0
   11.9700  -13.8600    0.0000 C   0  0  0  0  0  0  0  0  0  0  0  0
   13.1600  -14.5600    0.0000 N   0  0  0  0  0  0  0  0  0  0  0  0
   14.3500  -13.8600    0.0000 C   0  0  0  0  0  0  0  0  0  0  0  0
   15.5400  -14.5600    0.0000 C   0  0  0  0  0  0  0  0  0  0  0  0
   16.7300  -13.8600    0.0000 C   0  0  0  0  0  0  0  0  0  0  0  0
   17.9200  -14.5600    0.0000 C   0  0  0  0  0  0  0  0  0  0  0  0
   19.1100  -13.8600    0.0000 C   0  0  0  0  0  0  0  0  0  0  0  0
   20.3000  -14.5600    0.0000 N   0  3  0  0  0  0  0  0  0  0  0  0
   17.9200  -15.9600    0.0000 O   0  0  0  0  0  0  0  0  0  0  0  0
   10.7800  -15.9600    0.0000 C   0  0  0  0  0  0  0  0  0  0  0  0
   11.9700  -16.6600    0.0000 C   0  0  0  0  0  0  0  0  0  0  0  0
   13.0366  -15.8795    0.0000 C   0  0  0  0  0  0  0  0  0  0  0  0
   14.1802  -16.6769    0.0000 N   0  0  0  0  0  0  0  0  0  0  0  0
   13.7780  -17.8919    0.0000 C   0  0  0  0  0  0  0  0  0  0  0  0
   12.3504  -17.9421    0.0000 C   0  0  0  0  0  0  0  0  0  0  0  0
   14.4336  -19.1929    0.0000 C   0  0  0  0  0  0  0  0  0  0  0  0
   13.6617  -20.4041    0.0000 C   0  0  0  0  0  0  0  0  0  0  0  0
   12.3029  -20.3716    0.0000 C   0  0  0  0  0  0  0  0  0  0  0  0
   11.6473  -19.1406    0.0000 C   0  0  0  0  0  0  0  0  0  0  0  0
   11.9700  -12.4600    0.0000 O   0  0  0  0  0  0  0  0  0  0  0  0
   14.3500  -12.4600    0.0000 C   0  0  0  0  0  0  0  0  0  0  0  0
   15.5400  -11.7600    0.0000 O   0  0  0  0  0  0  0  0  0  0  0  0
   13.1600  -11.7600    0.0000 O   0  0  0  0  0  0  0  0  0  0  0  0
   13.1600  -10.3600    0.0000 C   0  0  0  0  0  0  0  0  0  0  0  0
   11.9700   -9.6600    0.0000 C   0  0  0  0  0  0  0  0  0  0  0  0
   14.3500   -9.6600    0.0000 C   0  0  0  0  0  0  0  0  0  0  0  0
   21.7000  -15.4000    0.0000 N   0  5  0  0  0  0  0  0  0  0  0  0
  1  2  1  0     0  0
  1  3  1  0     0  0
  1  4  2  0     0  0
  2  5  1  0     0  0
  5  6  1  0     0  0
  6  7  1  0     0  0
  7  8  1  0     0  0
  8  9  1  0     0  0
  9 10  1  0     0  0
 10 11  1  0     0  0
 11 12  1  0     0  0
 12 13  2  0     0  0
 11 14  2  0     0  0
  5 15  1  6     0  0
 15 16  1  0     0  0
 16 17  2  0     0  0
 17 18  1  0     0  0
 18 19  1  0     0  0
 19 20  1  0     0  0
 16 20  1  0     0  0
 19 21  2  0     0  0
 21 22  1  0     0  0
 22 23  2  0     0  0
 23 24  1  0     0  0
 20 24  2  0     0  0
  6 25  2  0     0  0
  8 26  1  6     0  0
 26 27  2  0     0  0
 26 28  1  0     0  0
 28 29  1  0     0  0
 29 30  1  0     0  0
 29 31  1  0     0  0
 13 32  2  0     0  0
M  CHG  2  13   1  32  -1
M  END
