 
     RDKit          2D

 22 21  0  0  1  0  0  0  0  0999 V2000
   12.3900  -16.3100    0.0000 O   0  0  0  0  0  0  0  0  0  0  0  0
   13.6024  -15.6100    0.0000 C   0  0  0  0  0  0  0  0  0  0  0  0
   14.8149  -16.3100    0.0000 C   0  0  0  0  0  0  0  0  0  0  0  0
   16.0273  -15.6100    0.0000 C   0  0  0  0  0  0  0  0  0  0  0  0
   17.2397  -16.3100    0.0000 C   0  0  0  0  0  0  0  0  0  0  0  0
   18.4522  -15.6100    0.0000 C   0  0  0  0  0  0  0  0  0  0  0  0
   19.6646  -16.3100    0.0000 C   0  0  0  0  0  0  0  0  0  0  0  0
   14.8149  -17.7098    0.0000 O   0  0  0  0  0  0  0  0  0  0  0  0
   16.0273  -14.2100    0.0000 O   0  0  0  0  0  0  0  0  0  0  0  0
   17.2397  -17.7099    0.0000 O   0  0  0  0  0  0  0  0  0  0  0  0
   18.4522  -14.2103    0.0000 O   0  0  0  0  0  0  0  0  0  0  0  0
   20.8811  -15.6077    0.0000 O   0  0  0  0  0  0  0  0  0  0  0  0
   25.6491  -16.5200    0.0000 C   0  0  0  0  0  0  0  0  0  0  0  0
   26.8684  -15.8200    0.0000 C   0  0  0  0  0  0  0  0  0  0  0  0
   24.4475  -15.8200    0.0000 C   0  0  0  0  0  0  0  0  0  0  0  0
   25.6608  -17.9201    0.0000 O   0  0  0  0  0  0  0  0  0  0  0  0
   26.8684  -14.4199    0.0000 C   0  0  0  0  0  0  0  0  0  0  0  0
   28.0819  -16.5200    0.0000 O   0  0  0  0  0  0  0  0  0  0  0  0
   24.4475  -14.4199    0.0000 C   0  0  0  0  0  0  0  0  0  0  0  0
   23.2399  -16.5200    0.0000 O   0  0  0  0  0  0  0  0  0  0  0  0
   25.6491  -13.7141    0.0000 O   0  0  0  0  0  0  0  0  0  0  0  0
   28.0819  -13.7141    0.0000 O   0  0  0  0  0  0  0  0  0  0  0  0
  1  2  1  0
  2  3  1  0
  3  4  1  0
  4  5  1  0
  5  6  1  0
  6  7  1  0
  3  8  1  6
  4  9  1  6
  5 10  1  1
  6 11  1  1
  7 12  2  0
 13 14  1  0
 13 15  1  0
 13 16  1  6
 14 17  1  0
 14 18  1  1
 15 19  1  0
 15 20  1  6
 17 21  1  0
 17 22  1  0
 19 21  1  0
M  END
