 
     RDKit          2D

 50 58  0  0  1  0  0  0  0  0999 V2000
   25.7600  -21.4200    0.0000 C   0  0  0  0  0  0  0  0  0  0  0  0
   24.5000  -22.1200    0.0000 C   0  0  0  0  0  0  0  0  0  0  0  0
   26.8800  -22.1200    0.0000 C   0  0  0  0  0  0  0  0  0  0  0  0
   26.8800  -20.6500    0.0000 O   0  0  0  0  0  0  0  0  0  0  0  0
   24.6400  -20.6500    0.0000 C   0  0  0  0  0  0  0  0  0  0  0  0
   24.5000  -23.4500    0.0000 C   0  0  0  0  0  0  0  0  0  0  0  0
   23.3800  -21.4200    0.0000 C   0  0  0  0  0  0  0  0  0  0  0  0
   23.8700  -20.5800    0.0000 C   0  0  0  0  0  0  0  0  0  0  0  0
   26.8800  -23.4500    0.0000 C   0  0  0  0  0  0  0  0  0  0  0  0
   26.4600  -19.3200    0.0000 C   0  0  0  0  0  0  0  0  0  0  0  0
   25.0600  -19.3200    0.0000 C   0  0  0  0  0  0  0  0  0  0  0  0
   23.3800  -24.1500    0.0000 C   0  0  0  0  0  0  0  0  0  0  0  0
   22.1900  -22.1200    0.0000 C   0  0  0  0  0  0  0  0  0  0  0  0
   27.2300  -18.2700    0.0000 O   0  0  0  0  0  0  0  0  0  0  0  0
   22.1900  -23.4500    0.0000 C   0  0  0  0  0  0  0  0  0  0  0  0
   23.3800  -25.5500    0.0000 C   0  0  0  0  0  0  0  0  0  0  0  0
   21.0000  -24.1500    0.0000 C   0  0  0  0  0  0  0  0  0  0  0  0
   22.1900  -26.1800    0.0000 C   0  0  0  0  0  0  0  0  0  0  0  0
   21.0000  -25.4800    0.0000 C   0  0  0  0  0  0  0  0  0  0  0  0
   19.8100  -23.4500    0.0000 C   0  0  0  0  0  0  0  0  0  0  0  0
   21.0000  -22.7500    0.0000 C   0  0  0  0  0  0  0  0  0  0  0  0
   19.8100  -26.1800    0.0000 C   0  0  0  0  0  0  0  0  0  0  0  0
   18.6200  -24.1500    0.0000 C   0  0  0  0  0  0  0  0  0  0  0  0
   18.6200  -25.4800    0.0000 C   0  0  0  0  0  0  0  0  0  0  0  0
   17.4300  -26.1800    0.0000 O   0  0  0  0  0  0  0  0  0  0  0  0
   28.0924  -22.8200    0.0000 C   0  0  0  0  0  0  0  0  0  0  0  0
   23.3800  -26.9500    0.0000 C   0  0  0  0  0  0  0  0  0  0  0  0
   14.4999  -17.2317    0.0000 C   0  0  0  0  0  0  0  0  0  0  0  0
   14.4999  -18.6327    0.0000 C   0  0  0  0  0  0  0  0  0  0  0  0
   15.6907  -19.2631    0.0000 C   0  0  0  0  0  0  0  0  0  0  0  0
   16.8815  -18.6327    0.0000 C   0  0  0  0  0  0  0  0  0  0  0  0
   16.8815  -17.2317    0.0000 C   0  0  0  0  0  0  0  0  0  0  0  0
   15.6907  -16.5313    0.0000 C   0  0  0  0  0  0  0  0  0  0  0  0
   18.0723  -19.2631    0.0000 C   0  0  0  0  0  0  0  0  0  0  0  0
   19.1931  -18.6327    0.0000 C   0  0  0  0  0  0  0  0  0  0  0  0
   19.1931  -17.2317    0.0000 C   0  0  0  0  0  0  0  0  0  0  0  0
   18.0723  -16.5313    0.0000 C   0  0  0  0  0  0  0  0  0  0  0  0
   20.3839  -16.5313    0.0000 C   0  0  0  0  0  0  0  0  0  0  0  0
   20.3839  -15.2004    0.0000 C   0  0  0  0  0  0  0  0  0  0  0  0
   19.1931  -14.4999    0.0000 C   0  0  0  0  0  0  0  0  0  0  0  0
   18.0723  -15.2004    0.0000 C   0  0  0  0  0  0  0  0  0  0  0  0
   22.7655  -16.5313    0.0000 C   0  0  0  0  0  0  0  0  0  0  0  0
   22.7655  -15.2004    0.0000 C   0  0  0  0  0  0  0  0  0  0  0  0
   21.5747  -14.4999    0.0000 C   0  0  0  0  0  0  0  0  0  0  0  0
   13.3091  -19.2631    0.0000 O   0  0  0  0  0  0  0  0  0  0  0  0
   20.3839  -13.7994    0.0000 C   0  0  0  0  0  0  0  0  0  0  0  0
   21.5747  -13.1690    0.0000 O   0  0  0  0  0  0  0  0  0  0  0  0
   23.7462  -17.5119    0.0000 O   0  0  0  0  0  0  0  0  0  0  0  0
   23.9563  -14.4999    0.0000 O   0  0  0  0  0  0  0  0  0  0  0  0
   24.7800  -19.6700    0.0000 O   0  0  0  0  0  0  0  0  0  0  0  0
  1  2  1  0
  1  3  1  0
  1  4  1  0
  1  5  1  6
  2  6  1  0
  2  7  1  0
  2  8  1  1
  3  9  1  0
  4 10  1  0
  5 11  1  0
  6 12  1  0
  7 13  1  0
 10 14  2  0
 12 15  1  0
 12 16  1  6
 15 17  1  0
 16 18  1  0
 17 19  1  0
 17 20  1  0
 17 21  1  1
 19 22  2  0
 20 23  1  0
 22 24  1  0
 24 25  2  0
  6  9  1  1
 10 11  1  0
 15 13  1  1
 18 19  1  0
 23 24  1  0
  3 26  1  1
  9 26  1  1
 16 27  1  1
 18 27  1  1
 28 29  2  0
 29 30  1  0
 30 31  2  0
 31 32  1  0
 32 33  2  0
 28 33  1  0
 31 34  1  0
 34 35  1  0
 36 35  1  6
 36 37  1  0
 32 37  1  0
 36 38  1  0
 38 39  1  0
 39 40  1  0
 40 41  1  0
 37 41  1  1
 38 42  1  1
 42 43  1  0
 43 44  1  0
 39 44  1  0
 29 45  1  0
 39 46  1  1
 44 47  1  1
 42 48  1  6
 43 49  1  6
M  END
