 
     RDKit          2D

 44 46  0  0  1  0  0  0  0  0999 V2000
   16.0976  -18.1794    0.0000 C   0  0  0  0  0  0  0  0  0  0  0  0
   16.8638  -19.4331    0.0000 C   0  0  0  0  0  0  0  0  0  0  0  0
   18.1871  -18.9456    0.0000 C   0  0  0  0  0  0  0  0  0  0  0  0
   18.1871  -17.5526    0.0000 C   0  0  0  0  0  0  0  0  0  0  0  0
   16.8638  -17.0650    0.0000 C   0  0  0  0  0  0  0  0  0  0  0  0
   19.3712  -19.7117    0.0000 C   0  0  0  0  0  0  0  0  0  0  0  0
   20.5552  -18.9456    0.0000 C   0  0  0  0  0  0  0  0  0  0  0  0
   21.7393  -19.7117    0.0000 C   0  0  0  0  0  0  0  0  0  0  0  0
   22.9233  -18.9456    0.0000 C   0  0  0  0  0  0  0  0  0  0  0  0
   21.7393  -21.1047    0.0000 O   0  0  0  0  0  0  0  0  0  0  0  0
   24.1770  -19.7117    0.0000 C   0  0  0  0  0  0  0  0  0  0  0  0
   25.3611  -18.9456    0.0000 C   0  0  0  0  0  0  0  0  0  0  0  0
   26.5451  -19.7117    0.0000 C   0  0  0  0  0  0  0  0  0  0  0  0
   27.7292  -18.9456    0.0000 C   0  0  0  0  0  0  0  0  0  0  0  0
   16.3762  -20.7565    0.0000 O   0  0  0  0  0  0  0  0  0  0  0  0
   19.2319  -16.6471    0.0000 C   0  0  0  0  0  0  0  0  0  0  0  0
   19.0229  -15.2541    0.0000 C   0  0  0  0  0  0  0  0  0  0  0  0
   17.6996  -14.7666    0.0000 C   0  0  0  0  0  0  0  0  0  0  0  0
   16.6548  -15.6720    0.0000 C   0  0  0  0  0  0  0  0  0  0  0  0
   20.0677  -14.4183    0.0000 C   0  0  0  0  0  0  0  0  0  0  0  0
   19.8587  -13.0253    0.0000 C   0  0  0  0  0  0  0  0  0  0  0  0
   18.5354  -12.5377    0.0000 C   0  0  0  0  0  0  0  0  0  0  0  0
   17.4906  -13.4432    0.0000 C   0  0  0  0  0  0  0  0  0  0  0  0
   16.3066  -12.7467    0.0000 O   0  0  0  0  0  0  0  0  0  0  0  0
   15.1225  -13.4432    0.0000 C   0  0  0  0  0  0  0  0  0  0  0  0
   13.9384  -12.7467    0.0000 C   0  0  0  0  0  0  0  0  0  0  0  0
   12.6847  -13.4432    0.0000 O   0  0  0  0  0  0  0  0  0  0  0  0
   13.9384  -11.3537    0.0000 O   0  0  0  0  0  0  0  0  0  0  0  0
   11.4718  -12.7159    0.0000 C   0  0  0  0  0  0  0  0  0  0  0  0
   10.2442  -13.3978    0.0000 C   0  0  0  0  0  0  0  0  0  0  0  0
    9.0134  -12.6600    0.0000 C   0  0  0  0  0  0  0  0  0  0  0  0
    7.7982  -13.3354    0.0000 C   0  0  0  0  0  0  0  0  0  0  0  0
    6.5925  -12.6126    0.0000 C   0  0  0  0  0  0  0  0  0  0  0  0
    5.3647  -13.2950    0.0000 C   0  0  0  0  0  0  0  0  0  0  0  0
    4.1848  -12.5876    0.0000 C   0  0  0  0  0  0  0  0  0  0  0  0
    2.9675  -13.2640    0.0000 C   0  0  0  0  0  0  0  0  0  0  0  0
    2.9675  -14.6640    0.0000 C   0  0  0  0  0  0  0  0  0  0  0  0
    4.1448  -15.3431    0.0000 C   0  0  0  0  0  0  0  0  0  0  0  0
    5.3514  -14.6457    0.0000 C   0  0  0  0  0  0  0  0  0  0  0  0
    6.5338  -15.3277    0.0000 C   0  0  0  0  0  0  0  0  0  0  0  0
    7.7270  -14.6380    0.0000 C   0  0  0  0  0  0  0  0  0  0  0  0
    8.9160  -15.3237    0.0000 C   0  0  0  0  0  0  0  0  0  0  0  0
   10.1059  -14.6359    0.0000 C   0  0  0  0  0  0  0  0  0  0  0  0
   11.2966  -15.3227    0.0000 C   0  0  0  0  0  0  0  0  0  0  0  0
  1  2  1  0
  2  3  1  0
  3  4  1  0
  4  5  1  0
  5  1  1  6
  3  6  1  1
  6  7  1  0
  7  8  1  0
  8  9  1  0
  8 10  1  6
  9 11  1  0
 11 12  1  0
 12 13  1  0
 13 14  1  0
  2 15  1  6
  4 16  1  6
 16 17  1  0
 17 18  2  0
 18 19  1  0
  5 19  1  0
 17 20  1  0
 20 21  2  0
 21 22  1  0
 22 23  2  0
 18 23  1  0
 24 23  1  0
 24 25  1  0
 25 26  1  0
 26 27  1  0
 26 28  2  0
 27 29  1  0
 29 30  1  0
 30 31  1  0
 31 32  1  0
 32 33  1  0
 33 34  1  0
 34 35  1  0
 35 36  1  0
 36 37  1  0
 37 38  1  0
 38 39  1  0
 39 40  1  0
 40 41  1  0
 41 42  1  0
 42 43  1  0
 43 44  1  0
M  END
