 
 
 
 43 46  0  0  0  0  0  0  0  0999 V2000
   19.3071  -20.0748    0.0000 C   0  0  0  0  0  0  0  0  0  0  0  0
   20.5662  -19.3753    0.0000 C   0  0  0  0  0  0  0  0  0  0  0  0
   20.5662  -17.9764    0.0000 C   0  0  0  0  0  0  0  0  0  0  0  0
   19.3771  -17.2769    0.0000 C   0  0  0  0  0  0  0  0  0  0  0  0
   18.1180  -17.9764    0.0000 C   0  0  0  0  0  0  0  0  0  0  0  0
   18.1180  -19.3753    0.0000 C   0  0  0  0  0  0  0  0  0  0  0  0
   16.9289  -17.2769    0.0000 N   0  0  0  0  0  0  0  0  0  0  0  0
   16.9289  -15.8780    0.0000 C   0  0  0  0  0  0  0  0  0  0  0  0
   18.1880  -15.1785    0.0000 N   0  0  0  0  0  0  0  0  0  0  0  0
   18.1880  -13.7796    0.0000 C   0  0  0  0  0  0  0  0  0  0  0  0
   16.9289  -13.0801    0.0000 C   0  0  0  0  0  0  0  0  0  0  0  0
   15.7398  -13.7796    0.0000 C   0  0  0  0  0  0  0  0  0  0  0  0
   15.7398  -15.1785    0.0000 N   0  0  0  0  0  0  0  0  0  0  0  0
   14.5507  -13.0801    0.0000 C   0  0  0  0  0  0  0  0  0  0  0  0
   19.3771  -15.8780    0.0000 O   0  0  0  0  0  0  0  0  0  0  0  0
   20.5662  -15.1785    0.0000 C   0  0  0  0  0  0  0  0  0  0  0  0
   14.2709  -11.6812    0.0000 C   0  0  0  0  0  0  0  0  0  0  0  0
   12.8720  -11.5413    0.0000 N   0  0  0  0  0  0  0  0  0  0  0  0
   12.3124  -12.8003    0.0000 C   0  0  0  0  0  0  0  0  0  0  0  0
   13.2917  -13.7096    0.0000 C   0  0  0  0  0  0  0  0  0  0  0  0
   10.9834  -13.2200    0.0000 C   0  0  0  0  0  0  0  0  0  0  0  0
   10.6337  -14.5490    0.0000 C   0  0  0  0  0  0  0  0  0  0  0  0
   11.6829  -15.5282    0.0000 C   0  0  0  0  0  0  0  0  0  0  0  0
   13.0119  -15.1086    0.0000 C   0  0  0  0  0  0  0  0  0  0  0  0
   12.1725  -10.2822    0.0000 C   0  0  0  0  0  0  0  0  0  0  0  0
   21.7553  -20.0748    0.0000 N   0  0  0  0  0  0  0  0  0  0  0  0
   21.7553  -21.4737    0.0000 C   0  0  0  0  0  0  0  0  0  0  0  0
   22.9444  -19.4453    0.0000 C   0  0  0  0  0  0  0  0  0  0  0  0
   19.3071  -21.4737    0.0000 N   0  0  0  0  0  0  0  0  0  0  0  0
   18.1180  -22.1732    0.0000 C   0  0  0  0  0  0  0  0  0  0  0  0
   16.8590  -21.4737    0.0000 C   0  0  0  0  0  0  0  0  0  0  0  0
   18.1180  -23.5722    0.0000 O   0  0  0  0  0  0  0  0  0  0  0  0
   24.2034  -20.1447    0.0000 C   0  0  0  0  0  0  0  0  0  0  0  0
   25.3925  -19.4453    0.0000 N   0  0  0  0  0  0  0  0  0  0  0  0
   26.5816  -20.1447    0.0000 C   0  0  0  0  0  0  0  0  0  0  0  0
   25.3925  -18.0463    0.0000 C   0  0  0  0  0  0  0  0  0  0  0  0
   15.6699  -22.1732    0.0000 C   0  0  0  0  0  0  0  0  0  0  0  0
   16.9289  -11.6812    0.0000 C   0  0  0  0  0  0  0  0  0  0  0  0
   15.7398  -10.9117    0.0000 O   0  0  0  0  0  0  0  0  0  0  0  0
   18.1180  -10.9117    0.0000 O   0  0  0  0  0  0  0  0  0  0  0  0
   15.7398   -9.5128    0.0000 C   0  0  0  0  0  0  0  0  0  0  0  0
   14.4808   -8.8133    0.0000 C   0  0  0  0  0  0  0  0  0  0  0  0
   16.9289   -8.8133    0.0000 C   0  0  0  0  0  0  0  0  0  0  0  0
  1  2  2  0     0  0
  2  3  1  0     0  0
  3  4  2  0     0  0
  4  5  1  0     0  0
  5  6  2  0     0  0
  1  6  1  0     0  0
  5  7  1  0     0  0
  7  8  1  0     0  0
  8  9  2  0     0  0
  9 10  1  0     0  0
 10 11  2  0     0  0
 11 12  1  0     0  0
 12 13  2  0     0  0
  8 13  1  0     0  0
 12 14  1  0     0  0
  4 15  1  0     0  0
 15 16  1  0     0  0
 14 17  2  0     0  0
 17 18  1  0     0  0
 18 19  1  0     0  0
 19 20  2  0     0  0
 14 20  1  0     0  0
 19 21  1  0     0  0
 21 22  2  0     0  0
 22 23  1  0     0  0
 23 24  2  0     0  0
 20 24  1  0     0  0
 18 25  1  0     0  0
  2 26  1  0     0  0
 26 27  1  0     0  0
 26 28  1  0     0  0
  1 29  1  0     0  0
 29 30  1  0     0  0
 30 31  1  0     0  0
 30 32  2  0     0  0
 28 33  1  0     0  0
 33 34  1  0     0  0
 34 35  1  0     0  0
 34 36  1  0     0  0
 31 37  2  0     0  0
 11 38  1  0     0  0
 38 39  1  0     0  0
 38 40  2  0     0  0
 39 41  1  0     0  0
 41 42  1  0     0  0
 41 43  1  0     0  0
M  END
