 
 
 
 42 47  0  0  0  0  0  0  0  0999 V2000
   12.6700  -13.7200    0.0000 C   0  0  0  0  0  0  0  0  0  0  0  0
   12.6700  -15.1200    0.0000 N   0  0  0  0  0  0  0  0  0  0  0  0
   13.8824  -15.8200    0.0000 C   0  0  0  0  0  0  0  0  0  0  0  0
   15.0949  -15.1200    0.0000 N   0  0  0  0  0  0  0  0  0  0  0  0
   15.0949  -13.7200    0.0000 C   0  0  0  0  0  0  0  0  0  0  0  0
   13.8824  -13.0200    0.0000 N   0  0  0  0  0  0  0  0  0  0  0  0
   13.8814  -17.2268    0.0000 N   0  0  0  0  0  0  0  0  0  0  0  0
   12.5310  -17.6603    0.0000 C   0  0  0  0  0  0  0  0  0  0  0  0
   12.5260  -19.0785    0.0000 C   0  0  0  0  0  0  0  0  0  0  0  0
   13.8733  -19.5215    0.0000 N   0  0  0  0  0  0  0  0  0  0  0  0
   14.7109  -18.3771    0.0000 C   0  0  0  0  0  0  0  0  0  0  0  0
   11.3211  -16.9560    0.0000 C   0  0  0  0  0  0  0  0  0  0  0  0
   10.1062  -17.6518    0.0000 C   0  0  0  0  0  0  0  0  0  0  0  0
   10.1012  -19.0699    0.0000 C   0  0  0  0  0  0  0  0  0  0  0  0
   11.3111  -19.7742    0.0000 C   0  0  0  0  0  0  0  0  0  0  0  0
   11.4576  -13.0200    0.0000 N   0  0  0  0  0  0  0  0  0  0  0  0
   11.4576  -11.6202    0.0000 C   0  0  0  0  0  0  0  0  0  0  0  0
   10.2451  -10.9202    0.0000 C   0  0  0  0  0  0  0  0  0  0  0  0
    9.0327  -11.6202    0.0000 O   0  0  0  0  0  0  0  0  0  0  0  0
    9.0327  -13.0200    0.0000 C   0  0  0  0  0  0  0  0  0  0  0  0
   10.2451  -13.7200    0.0000 C   0  0  0  0  0  0  0  0  0  0  0  0
   16.1279  -18.3820    0.0000 C   0  0  0  0  0  0  0  0  0  0  0  0
   16.8331  -19.6127    0.0000 F   0  0  0  0  0  0  0  0  0  0  0  0
   16.8201  -17.1926    0.0000 F   0  0  0  0  0  0  0  0  0  0  0  0
   16.3260  -13.0090    0.0000 N   0  0  0  0  0  0  0  0  0  0  0  0
   17.5312  -13.7047    0.0000 C   0  0  0  0  0  0  0  0  0  0  0  0
   18.7135  -13.0219    0.0000 C   0  0  0  0  0  0  0  0  0  0  0  0
   19.9075  -13.7112    0.0000 C   0  0  0  0  0  0  0  0  0  0  0  0
   19.9076  -15.1197    0.0000 C   0  0  0  0  0  0  0  0  0  0  0  0
   21.1201  -15.8196    0.0000 C   0  0  0  0  0  0  0  0  0  0  0  0
   22.3325  -15.1195    0.0000 C   0  0  0  0  0  0  0  0  0  0  0  0
   22.3323  -13.7109    0.0000 C   0  0  0  0  0  0  0  0  0  0  0  0
   21.1198  -13.0111    0.0000 C   0  0  0  0  0  0  0  0  0  0  0  0
   21.1198  -11.6201    0.0000 C   0  0  0  0  0  0  0  0  0  0  0  0
   22.3473  -10.9112    0.0000 C   0  0  0  0  0  0  0  0  0  0  0  0
   22.3472   -9.5112    0.0000 C   0  0  0  0  0  0  0  0  0  0  0  0
   21.1347   -8.8114    0.0000 N   0  0  0  0  0  0  0  0  0  0  0  0
   19.9071   -9.5203    0.0000 C   0  0  0  0  0  0  0  0  0  0  0  0
   19.9073  -10.9203    0.0000 C   0  0  0  0  0  0  0  0  0  0  0  0
   16.5412  -14.6946    0.0000 C   0  0  0  0  0  0  0  0  0  0  0  0
   18.2312  -14.9171    0.0000 C   0  0  0  0  0  0  0  0  0  0  0  0
   21.1346   -7.4200    0.0000 C   0  0  0  0  0  0  0  0  0  0  0  0
  1  2  2  0     0  0
  2  3  1  0     0  0
  3  4  2  0     0  0
  4  5  1  0     0  0
  5  6  2  0     0  0
  1  6  1  0     0  0
  3  7  1  0     0  0
  7  8  1  0     0  0
  8  9  1  0     0  0
  9 10  1  0     0  0
 10 11  2  0     0  0
  7 11  1  0     0  0
  8 12  2  0     0  0
 12 13  1  0     0  0
 13 14  2  0     0  0
 14 15  1  0     0  0
  9 15  2  0     0  0
  1 16  1  0     0  0
 16 17  1  0     0  0
 17 18  1  0     0  0
 18 19  1  0     0  0
 19 20  1  0     0  0
 20 21  1  0     0  0
 16 21  1  0     0  0
 11 22  1  0     0  0
 22 23  1  0     0  0
 22 24  1  0     0  0
  5 25  1  0     0  0
 25 26  1  0     0  0
 26 27  1  0     0  0
 27 28  1  0     0  0
 28 29  2  0     0  0
 29 30  1  0     0  0
 30 31  2  0     0  0
 31 32  1  0     0  0
 32 33  2  0     0  0
 28 33  1  0     0  0
 33 34  1  0     0  0
 34 35  1  0     0  0
 35 36  1  0     0  0
 36 37  1  0     0  0
 37 38  1  0     0  0
 38 39  1  0     0  0
 34 39  1  0     0  0
 26 40  1  0     0  0
 26 41  1  0     0  0
 37 42  1  0     0  0
M  END
