 
 
 
 34 36  0  0  0  0  0  0  0  0999 V2000
   25.8974  -13.9283    0.0000 C   0  0  0  0  0  0  0  0  0  0  0  0
   25.8974  -15.3282    0.0000 C   0  0  0  0  0  0  0  0  0  0  0  0
   24.7075  -16.0281    0.0000 C   0  0  0  0  0  0  0  0  0  0  0  0
   23.4477  -15.3282    0.0000 C   0  0  0  0  0  0  0  0  0  0  0  0
   23.4477  -13.9283    0.0000 C   0  0  0  0  0  0  0  0  0  0  0  0
   24.7075  -13.2284    0.0000 C   0  0  0  0  0  0  0  0  0  0  0  0
   27.0873  -13.2284    0.0000 F   0  0  0  0  0  0  0  0  0  0  0  0
   22.2578  -16.0281    0.0000 O   0  0  0  0  0  0  0  0  0  0  0  0
   22.2578  -17.4280    0.0000 C   0  0  0  0  0  0  0  0  0  0  0  0
   22.2578  -13.2284    0.0000 C   0  0  0  0  0  0  0  0  0  0  0  0
   21.0679  -13.9283    0.0000 N   0  0  0  0  0  0  0  0  0  0  0  0
   22.2578  -11.8285    0.0000 O   0  0  0  0  0  0  0  0  0  0  0  0
   19.8780  -13.2284    0.0000 C   0  0  0  0  0  0  0  0  0  0  0  0
   18.6881  -13.9283    0.0000 C   0  0  0  0  0  0  0  0  0  0  0  0
   18.6881  -15.3282    0.0000 C   0  0  0  0  0  0  0  0  0  0  0  0
   17.4282  -16.0281    0.0000 C   0  0  0  0  0  0  0  0  0  0  0  0
   16.2384  -15.3282    0.0000 C   0  0  0  0  0  0  0  0  0  0  0  0
   16.2384  -13.9283    0.0000 C   0  0  0  0  0  0  0  0  0  0  0  0
   17.4282  -13.2284    0.0000 C   0  0  0  0  0  0  0  0  0  0  0  0
   15.0485  -16.0281    0.0000 C   0  0  0  0  0  0  0  0  0  0  0  0
   14.9085  -17.4280    0.0000 N   0  0  0  0  0  0  0  0  0  0  0  0
   13.5086  -17.7079    0.0000 N   0  0  0  0  0  0  0  0  0  0  0  0
   12.8087  -16.5181    0.0000 C   0  0  0  0  0  0  0  0  0  0  0  0
   13.7186  -15.4682    0.0000 C   0  0  0  0  0  0  0  0  0  0  0  0
   13.4386  -14.0683    0.0000 C   0  0  0  0  0  0  0  0  0  0  0  0
   12.1088  -13.6483    0.0000 N   0  0  0  0  0  0  0  0  0  0  0  0
   14.4885  -13.1584    0.0000 O   0  0  0  0  0  0  0  0  0  0  0  0
   11.4088  -16.3781    0.0000 N   0  0  0  0  0  0  0  0  0  0  0  0
   12.9487  -18.9678    0.0000 C   0  0  0  0  0  0  0  0  0  0  0  0
   11.5488  -19.1078    0.0000 C   0  0  0  0  0  0  0  0  0  0  0  0
   13.7886  -20.0877    0.0000 C   0  0  0  0  0  0  0  0  0  0  0  0
   10.1490  -19.1078    0.0000 F   0  0  0  0  0  0  0  0  0  0  0  0
   11.5488  -20.5077    0.0000 F   0  0  0  0  0  0  0  0  0  0  0  0
   11.5488  -17.7079    0.0000 F   0  0  0  0  0  0  0  0  0  0  0  0
  1  2  2  0     0  0
  2  3  1  0     0  0
  3  4  2  0     0  0
  4  5  1  0     0  0
  5  6  2  0     0  0
  1  6  1  0     0  0
  1  7  1  0     0  0
  4  8  1  0     0  0
  8  9  1  0     0  0
  5 10  1  0     0  0
 10 11  1  0     0  0
 10 12  2  0     0  0
 11 13  1  0     0  0
 13 14  1  0     0  0
 14 15  2  0     0  0
 15 16  1  0     0  0
 16 17  2  0     0  0
 17 18  1  0     0  0
 18 19  2  0     0  0
 14 19  1  0     0  0
 17 20  1  0     0  0
 20 21  2  0     0  0
 21 22  1  0     0  0
 22 23  1  0     0  0
 23 24  2  0     0  0
 20 24  1  0     0  0
 24 25  1  0     0  0
 25 26  1  0     0  0
 25 27  2  0     0  0
 23 28  1  0     0  0
 22 29  1  0     0  0
 29 30  1  0     0  0
 29 31  1  0     0  0
 30 32  1  0     0  0
 30 33  1  0     0  0
 30 34  1  0     0  0
M  END
