 
 
 
 36 40  0  0  0  0  0  0  0  0999 V2000
   39.5500  -25.4100    0.0000 C   0  0  0  0  0  0  0  0  0  0  0  0
   39.5500  -26.8100    0.0000 C   0  0  0  0  0  0  0  0  0  0  0  0
   40.7624  -27.5100    0.0000 C   0  0  0  0  0  0  0  0  0  0  0  0
   41.9749  -26.8100    0.0000 C   0  0  0  0  0  0  0  0  0  0  0  0
   41.9749  -25.4100    0.0000 C   0  0  0  0  0  0  0  0  0  0  0  0
   40.7624  -24.7100    0.0000 C   0  0  0  0  0  0  0  0  0  0  0  0
   38.3376  -24.7100    0.0000 N   0  0  0  0  0  0  0  0  0  0  0  0
   37.1421  -25.4004    0.0000 C   0  0  0  0  0  0  0  0  0  0  0  0
   35.9547  -24.7149    0.0000 N   0  0  0  0  0  0  0  0  0  0  0  0
   34.7635  -25.4029    0.0000 C   0  0  0  0  0  0  0  0  0  0  0  0
   37.1420  -26.8097    0.0000 O   0  0  0  0  0  0  0  0  0  0  0  0
   38.3376  -27.5100    0.0000 F   0  0  0  0  0  0  0  0  0  0  0  0
   40.7624  -23.3102    0.0000 F   0  0  0  0  0  0  0  0  0  0  0  0
   43.2060  -27.5210    0.0000 F   0  0  0  0  0  0  0  0  0  0  0  0
   33.5740  -24.7162    0.0000 C   0  0  0  0  0  0  0  0  0  0  0  0
   32.3616  -25.4162    0.0000 C   0  0  0  0  0  0  0  0  0  0  0  0
   32.3616  -26.8162    0.0000 C   0  0  0  0  0  0  0  0  0  0  0  0
   33.5511  -27.5029    0.0000 C   0  0  0  0  0  0  0  0  0  0  0  0
   34.7635  -26.8029    0.0000 C   0  0  0  0  0  0  0  0  0  0  0  0
   31.1359  -27.5242    0.0000 C   0  0  0  0  0  0  0  0  0  0  0  0
   29.9279  -26.8270    0.0000 C   0  0  0  0  0  0  0  0  0  0  0  0
   28.7156  -27.5271    0.0000 C   0  0  0  0  0  0  0  0  0  0  0  0
   28.7157  -28.9271    0.0000 C   0  0  0  0  0  0  0  0  0  0  0  0
   29.9237  -29.6243    0.0000 C   0  0  0  0  0  0  0  0  0  0  0  0
   31.1360  -28.9242    0.0000 C   0  0  0  0  0  0  0  0  0  0  0  0
   33.5513  -28.9098    0.0000 F   0  0  0  0  0  0  0  0  0  0  0  0
   27.4992  -29.6298    0.0000 C   0  0  0  0  0  0  0  0  0  0  0  0
   26.2220  -29.0613    0.0000 N   0  0  0  0  0  0  0  0  0  0  0  0
   25.2867  -30.1004    0.0000 C   0  0  0  0  0  0  0  0  0  0  0  0
   25.9859  -31.3110    0.0000 C   0  0  0  0  0  0  0  0  0  0  0  0
   27.3533  -31.0201    0.0000 N   0  0  0  0  0  0  0  0  0  0  0  0
   29.6367  -25.4576    0.0000 C   0  0  0  0  0  0  0  0  0  0  0  0
   28.2443  -25.3114    0.0000 N   0  0  0  0  0  0  0  0  0  0  0  0
   27.6750  -26.5904    0.0000 C   0  0  0  0  0  0  0  0  0  0  0  0
   26.2798  -26.8871    0.0000 O   0  0  0  0  0  0  0  0  0  0  0  0
   25.4217  -32.5782    0.0000 C   0  0  0  0  0  0  0  0  0  0  0  0
  1  2  2  0     0  0
  2  3  1  0     0  0
  3  4  2  0     0  0
  4  5  1  0     0  0
  5  6  2  0     0  0
  1  6  1  0     0  0
  1  7  1  0     0  0
  7  8  1  0     0  0
  8  9  1  0     0  0
  9 10  1  0     0  0
  8 11  2  0     0  0
  2 12  1  0     0  0
  6 13  1  0     0  0
  4 14  1  0     0  0
 10 15  2  0     0  0
 15 16  1  0     0  0
 16 17  2  0     0  0
 17 18  1  0     0  0
 18 19  2  0     0  0
 10 19  1  0     0  0
 17 20  1  0     0  0
 20 21  2  0     0  0
 21 22  1  0     0  0
 22 23  2  0     0  0
 23 24  1  0     0  0
 24 25  2  0     0  0
 20 25  1  0     0  0
 18 26  1  0     0  0
 23 27  1  0     0  0
 27 28  1  0     0  0
 28 29  1  0     0  0
 29 30  2  0     0  0
 30 31  1  0     0  0
 27 31  2  0     0  0
 21 32  1  0     0  0
 32 33  1  0     0  0
 33 34  1  0     0  0
 22 34  1  0     0  0
 34 35  2  0     0  0
 30 36  1  0     0  0
M  END
