 
 
 
 34 38  0  0  1  0  0  0  0  0999 V2000
   16.3508  -12.9823    0.0000 N   0  0  0  0  0  0  0  0  0  0  0  0
   16.3508  -14.3858    0.0000 C   0  0  0  0  0  0  0  0  0  0  0  0
   17.6140  -15.0875    0.0000 C   0  0  0  0  0  0  0  0  0  0  0  0
   18.8069  -14.3858    0.0000 C   0  0  0  0  0  0  0  0  0  0  0  0
   18.8069  -12.9823    0.0000 C   0  0  0  0  0  0  0  0  0  0  0  0
   17.6140  -12.2805    0.0000 C   0  0  0  0  0  0  0  0  0  0  0  0
   15.1579  -15.0875    0.0000 C   0  0  0  0  0  0  0  0  0  0  0  0
   14.0349  -14.3858    0.0000 C   0  0  0  0  0  0  0  0  0  0  0  0
   12.7018  -15.0875    0.0000 C   0  0  0  0  0  0  0  0  0  0  0  0
   12.7018  -16.4910    0.0000 C   0  0  0  0  0  0  0  0  0  0  0  0
   13.9649  -17.1928    0.0000 C   0  0  0  0  0  0  0  0  0  0  0  0
   15.1579  -16.4910    0.0000 N   0  0  0  0  0  0  0  0  0  0  0  0
   13.9649  -18.5962    0.0000 C   0  0  0  0  0  0  0  0  0  0  0  0
   16.3508  -17.1928    0.0000 C   0  0  0  0  0  0  0  0  0  0  0  0
   16.3508  -18.5962    0.0000 C   0  0  0  0  0  0  0  0  0  0  0  0
   17.7543  -18.5962    0.0000 F   0  0  0  0  0  0  0  0  0  0  0  0
   14.9473  -18.5962    0.0000 F   0  0  0  0  0  0  0  0  0  0  0  0
   16.3508  -19.9997    0.0000 F   0  0  0  0  0  0  0  0  0  0  0  0
   19.9999  -12.2805    0.0000 N   0  0  0  0  0  0  0  0  0  0  0  0
   21.2630  -12.9823    0.0000 C   0  0  0  0  0  0  0  0  0  0  0  0
   21.6139  -14.3156    0.0000 C   0  0  0  0  0  0  0  0  0  0  0  0
   22.9472  -13.9647    0.0000 N   0  0  0  0  0  0  0  0  0  0  0  0
   22.5964  -12.6314    0.0000 C   0  0  0  0  0  0  0  0  0  0  0  0
   24.2104  -14.6665    0.0000 C   0  0  0  0  0  0  0  0  0  0  0  0
   25.4033  -13.9647    0.0000 C   0  0  0  0  0  0  0  0  0  0  0  0
   26.5963  -14.6665    0.0000 C   0  0  0  0  0  0  0  0  0  0  0  0
   27.7893  -13.9647    0.0000 F   0  0  0  0  0  0  0  0  0  0  0  0
   13.9880  -12.9860    0.0000 C   0  0  0  0  0  0  0  0  0  0  0  0
   12.7873  -12.2661    0.0000 C   0  0  0  0  0  0  0  0  0  0  0  0
   11.4541  -12.9678    0.0000 C   0  0  0  0  0  0  0  0  0  0  0  0
   11.5010  -14.3676    0.0000 C   0  0  0  0  0  0  0  0  0  0  0  0
   10.1083  -12.5798    0.0000 N   0  0  0  0  0  0  0  0  0  0  0  0
    9.3235  -13.7399    0.0000 N   0  0  0  0  0  0  0  0  0  0  0  0
   10.1842  -14.8448    0.0000 C   0  0  0  0  0  0  0  0  0  0  0  0
  1  2  2  0     0  0
  2  3  1  0     0  0
  3  4  2  0     0  0
  4  5  1  0     0  0
  5  6  2  0     0  0
  1  6  1  0     0  0
  7  2  1  1     0  0
  7  8  1  0     0  0
  8  9  2  0     0  0
  9 10  1  0     0  0
 10 11  1  0     0  0
 11 12  1  0     0  0
  7 12  1  0     0  0
 11 13  1  0     0  0
 12 14  1  0     0  0
 14 15  1  0     0  0
 15 16  1  0     0  0
 15 17  1  0     0  0
 15 18  1  0     0  0
  5 19  1  0     0  0
 19 20  1  0     0  0
 20 21  1  0     0  0
 21 22  1  0     0  0
 22 23  1  0     0  0
 20 23  1  0     0  0
 22 24  1  0     0  0
 24 25  1  0     0  0
 25 26  1  0     0  0
 26 27  1  0     0  0
  8 28  1  0     0  0
 28 29  2  0     0  0
 29 30  1  0     0  0
 30 31  2  0     0  0
  9 31  1  0     0  0
 30 32  1  0     0  0
 32 33  1  0     0  0
 33 34  2  0     0  0
 31 34  1  0     0  0
M  END
