 
 
 
 29 33  0  0  1  0  0  0  0  0999 V2000
   13.0900  -14.3500    0.0000 C   0  0  0  0  0  0  0  0  0  0  0  0
   13.0900  -15.7500    0.0000 N   0  0  0  0  0  0  0  0  0  0  0  0
   14.3024  -16.4500    0.0000 C   0  0  0  0  0  0  0  0  0  0  0  0
   15.5149  -15.7500    0.0000 C   0  0  0  0  0  0  0  0  0  0  0  0
   15.5149  -14.3500    0.0000 N   0  0  0  0  0  0  0  0  0  0  0  0
   14.3024  -13.6500    0.0000 C   0  0  0  0  0  0  0  0  0  0  0  0
   16.8464  -16.1826    0.0000 C   0  0  0  0  0  0  0  0  0  0  0  0
   17.6693  -15.0500    0.0000 C   0  0  0  0  0  0  0  0  0  0  0  0
   16.8464  -13.9174    0.0000 N   0  0  0  0  0  0  0  0  0  0  0  0
   11.8776  -13.6500    0.0000 C   0  0  0  0  0  0  0  0  0  0  0  0
   11.7315  -12.2602    0.0000 C   0  0  0  0  0  0  0  0  0  0  0  0
   10.3646  -11.9696    0.0000 N   0  0  0  0  0  0  0  0  0  0  0  0
    9.6658  -13.1798    0.0000 N   0  0  0  0  0  0  0  0  0  0  0  0
   10.6009  -14.2184    0.0000 C   0  0  0  0  0  0  0  0  0  0  0  0
    8.2699  -13.3265    0.0000 C   0  0  0  0  0  0  0  0  0  0  0  0
   14.3024  -17.8498    0.0000 C   0  0  0  0  0  0  0  0  0  0  0  0
   13.1552  -18.6835    0.0000 C   0  0  0  0  0  0  0  0  0  0  0  0
   13.5936  -20.0323    0.0000 N   0  0  0  0  0  0  0  0  0  0  0  0
   15.0118  -20.0321    0.0000 N   0  0  0  0  0  0  0  0  0  0  0  0
   15.4499  -18.6833    0.0000 C   0  0  0  0  0  0  0  0  0  0  0  0
   12.7720  -21.1633    0.0000 C   0  0  0  0  0  0  0  0  0  0  0  0
   11.3620  -21.3874    0.0000 C   0  0  0  0  0  0  0  0  0  0  0  0
   11.5861  -22.7974    0.0000 C   0  0  0  0  0  0  0  0  0  0  0  0
   12.9961  -22.5733    0.0000 C   0  0  0  0  0  0  0  0  0  0  0  0
   14.0979  -21.4808    0.0000 C   0  0  0  0  0  0  0  0  0  0  0  0
   14.4966  -22.8234    0.0000 C   0  0  0  0  0  0  0  0  0  0  0  0
   14.8589  -24.1757    0.0000 N   0  0  0  0  0  0  0  0  0  0  0  0
   10.7651  -23.9286    0.0000 C   0  0  0  0  0  0  0  0  0  0  0  0
   10.0651  -25.1411    0.0000 N   0  0  0  0  0  0  0  0  0  0  0  0
  1  2  1  0     0  0
  2  3  2  0     0  0
  3  4  1  0     0  0
  4  5  1  0     0  0
  5  6  1  0     0  0
  1  6  2  0     0  0
  4  7  2  0     0  0
  7  8  1  0     0  0
  8  9  2  0     0  0
  5  9  1  0     0  0
  1 10  1  0     0  0
 10 11  1  0     0  0
 11 12  2  0     0  0
 12 13  1  0     0  0
 13 14  1  0     0  0
 10 14  2  0     0  0
 13 15  1  0     0  0
  3 16  1  0     0  0
 16 17  2  0     0  0
 17 18  1  0     0  0
 18 19  1  0     0  0
 19 20  2  0     0  0
 16 20  1  0     0  0
 21 18  1  6     0  0
 21 22  1  0     0  0
 22 23  1  0     0  0
 23 24  1  0     0  0
 21 24  1  0     0  0
 21 25  1  1     0  0
 25 26  1  0     0  0
 26 27  3  0     0  0
 28 23  1  1     0  0
 28 29  3  0     0  0
M  END
