 
 
 
 22 21  0  0  0  0  0  0  0  0999 V2000
   20.1576  -16.8680    0.0000 C   0  0  0  0  0  0  0  0  0  0  0  0
   18.9678  -17.5679    0.0000 N   0  0  0  0  0  0  0  0  0  0  0  0
   17.6379  -17.2180    0.0000 C   0  0  0  0  0  0  0  0  0  0  0  0
   16.7980  -18.2679    0.0000 N   0  0  0  0  0  0  0  0  0  0  0  0
   17.5679  -19.4577    0.0000 C   0  0  0  0  0  0  0  0  0  0  0  0
   18.9678  -18.9678    0.0000 C   0  0  0  0  0  0  0  0  0  0  0  0
   20.0177  -19.8077    0.0000 O   0  0  0  0  0  0  0  0  0  0  0  0
   18.6178  -16.1681    0.0000 C   0  0  0  0  0  0  0  0  0  0  0  0
   18.1979  -14.8383    0.0000 C   0  0  0  0  0  0  0  0  0  0  0  0
   16.7980  -14.4883    0.0000 N   0  0  0  0  0  0  0  0  0  0  0  0
   15.8881  -15.5382    0.0000 C   0  0  0  0  0  0  0  0  0  0  0  0
   16.3081  -16.8680    0.0000 C   0  0  0  0  0  0  0  0  0  0  0  0
   16.3781  -13.1585    0.0000 C   0  0  0  0  0  0  0  0  0  0  0  0
   20.1576  -15.4682    0.0000 C   0  0  0  0  0  0  0  0  0  0  0  0
   21.3475  -14.7683    0.0000 C   0  0  0  0  0  0  0  0  0  0  0  0
   21.3475  -13.2984    0.0000 C   0  0  0  0  0  0  0  0  0  0  0  0
   20.1576  -12.5985    0.0000 C   0  0  0  0  0  0  0  0  0  0  0  0
   18.9678  -13.2984    0.0000 C   0  0  0  0  0  0  0  0  0  0  0  0
   18.9678  -14.6983    0.0000 C   0  0  0  0  0  0  0  0  0  0  0  0
   23.8000  -16.3100    0.0000 Cl  0  0  0  0  0  0  0  0  0  0  0  0
   23.8000  -17.7800    0.0000 Cl  0  0  0  0  0  0  0  0  0  0  0  0
   24.2200  -19.8800    0.0000 O   0  0  0  0  0  0  0  0  0  0  0  0
  1  2  1  0     0  0
  2  3  1  0     0  0
  3  4  1  0     0  0
  4  5  1  0     0  0
  5  6  1  0     0  0
  2  6  1  0     0  0
  6  7  2  0     0  0
  3  8  1  0     0  0
  8  9  1  0     0  0
  9 10  1  0     0  0
 10 11  1  0     0  0
 11 12  1  0     0  0
  3 12  1  0     0  0
 10 13  1  0     0  0
  1 14  1  0     0  0
 14 15  2  0     0  0
 15 16  1  0     0  0
 16 17  2  0     0  0
 17 18  1  0     0  0
 18 19  2  0     0  0
 14 19  1  0     0  0
M  END
