 
 
 
 32 36  0  0  0  0  0  0  0  0999 V2000
   19.1800  -16.8000    0.0000 C   0  0  0  0  0  0  0  0  0  0  0  0
   19.1800  -18.2000    0.0000 C   0  0  0  0  0  0  0  0  0  0  0  0
   20.5115  -18.6326    0.0000 C   0  0  0  0  0  0  0  0  0  0  0  0
   21.3344  -17.5000    0.0000 N   0  0  0  0  0  0  0  0  0  0  0  0
   20.5115  -16.3674    0.0000 C   0  0  0  0  0  0  0  0  0  0  0  0
   17.8485  -16.3674    0.0000 C   0  0  0  0  0  0  0  0  0  0  0  0
   17.0256  -17.5000    0.0000 C   0  0  0  0  0  0  0  0  0  0  0  0
   17.8485  -18.6326    0.0000 S   0  0  0  0  0  0  0  0  0  0  0  0
   15.6100  -17.5000    0.0000 C   0  0  0  0  0  0  0  0  0  0  0  0
   14.9100  -16.2876    0.0000 C   0  0  0  0  0  0  0  0  0  0  0  0
   13.5100  -16.2876    0.0000 C   0  0  0  0  0  0  0  0  0  0  0  0
   12.8100  -17.5000    0.0000 N   0  0  0  0  0  0  0  0  0  0  0  0
   13.5100  -18.7124    0.0000 C   0  0  0  0  0  0  0  0  0  0  0  0
   14.9100  -18.7124    0.0000 N   0  0  0  0  0  0  0  0  0  0  0  0
   12.8196  -19.9079    0.0000 N   0  0  0  0  0  0  0  0  0  0  0  0
   11.4103  -19.9080    0.0000 C   0  0  0  0  0  0  0  0  0  0  0  0
   10.5738  -18.7572    0.0000 C   0  0  0  0  0  0  0  0  0  0  0  0
    9.2208  -19.1971    0.0000 C   0  0  0  0  0  0  0  0  0  0  0  0
    9.2211  -20.6198    0.0000 N   0  0  0  0  0  0  0  0  0  0  0  0
   10.5743  -21.0591    0.0000 N   0  0  0  0  0  0  0  0  0  0  0  0
   11.0100  -22.3991    0.0000 C   0  0  0  0  0  0  0  0  0  0  0  0
   20.9403  -15.0478    0.0000 O   0  0  0  0  0  0  0  0  0  0  0  0
   20.9403  -19.9522    0.0000 C   0  0  0  0  0  0  0  0  0  0  0  0
   19.5271  -19.6170    0.0000 C   0  0  0  0  0  0  0  0  0  0  0  0
   22.7500  -17.5000    0.0000 C   0  0  0  0  0  0  0  0  0  0  0  0
   23.4500  -16.2876    0.0000 C   0  0  0  0  0  0  0  0  0  0  0  0
   24.8498  -16.2876    0.0000 N   0  0  0  0  0  0  0  0  0  0  0  0
   25.5597  -17.5168    0.0000 C   0  0  0  0  0  0  0  0  0  0  0  0
   26.9597  -17.5166    0.0000 C   0  0  0  0  0  0  0  0  0  0  0  0
   27.6596  -16.3041    0.0000 O   0  0  0  0  0  0  0  0  0  0  0  0
   26.9497  -15.0749    0.0000 C   0  0  0  0  0  0  0  0  0  0  0  0
   25.5497  -15.0751    0.0000 C   0  0  0  0  0  0  0  0  0  0  0  0
  1  2  2  0     0  0
  2  3  1  0     0  0
  3  4  1  0     0  0
  4  5  1  0     0  0
  1  5  1  0     0  0
  1  6  1  0     0  0
  6  7  2  0     0  0
  7  8  1  0     0  0
  2  8  1  0     0  0
  7  9  1  0     0  0
  9 10  2  0     0  0
 10 11  1  0     0  0
 11 12  2  0     0  0
 12 13  1  0     0  0
 13 14  2  0     0  0
  9 14  1  0     0  0
 13 15  1  0     0  0
 15 16  1  0     0  0
 16 17  2  0     0  0
 17 18  1  0     0  0
 18 19  2  0     0  0
 19 20  1  0     0  0
 16 20  1  0     0  0
 20 21  1  0     0  0
  5 22  2  0     0  0
  3 23  1  0     0  0
  3 24  1  0     0  0
  4 25  1  0     0  0
 25 26  1  0     0  0
 26 27  1  0     0  0
 27 28  1  0     0  0
 28 29  1  0     0  0
 29 30  1  0     0  0
 30 31  1  0     0  0
 31 32  1  0     0  0
 27 32  1  0     0  0
M  END
