 
     RDKit          2D

126120  0  1  1  0  0  0  0  0999 V2000
   23.5200  -21.2800    0.0000 N   0  0  0  0  0  0  0  0  0  0  0  0
   24.7100  -20.5800    0.0000 C   0  0  0  0  0  0  0  0  0  0  0  0
   25.9700  -21.2800    0.0000 C   0  0  0  0  0  0  0  0  0  0  0  0
   27.1600  -20.5800    0.0000 N   0  0  0  0  0  0  0  0  0  0  0  0
   25.9700  -22.6800    0.0000 O   0  0  0  0  0  0  0  0  0  0  0  0
   28.3500  -21.2800    0.0000 C   0  0  0  0  0  0  0  0  0  0  0  0
   28.3500  -22.6800    0.0000 R   0  0  0  0  0  0  0  0  0  0  0  0
   29.6100  -20.5800    0.0000 C   0  0  0  0  0  0  0  0  0  0  0  0
   29.6100  -19.1800    0.0000 O   0  0  0  0  0  0  0  0  0  0  0  0
   30.8000  -21.2800    0.0000 O   0  0  0  0  0  0  0  0  0  0  0  0
   24.7100  -19.1800    0.0000 R   0  0  0  0  0  0  0  0  0  0  0  0
   22.9537  -16.1663    0.0000 C   0  0  0  0  0  0  0  0  0  0  0  0
   24.1671  -16.8641    0.0000 C   0  0  0  0  0  0  0  0  0  0  0  0
   21.7467  -16.8705    0.0000 C   0  0  0  0  0  0  0  0  0  0  0  0
   25.3869  -16.1599    0.0000 C   0  0  0  0  0  0  0  0  0  0  0  0
   20.5331  -16.1725    0.0000 C   0  0  0  0  0  0  0  0  0  0  0  0
   26.7826  -16.1599    0.0000 C   0  0  0  0  0  0  0  0  0  0  0  0
   19.3197  -16.8767    0.0000 C   0  0  0  0  0  0  0  0  0  0  0  0
   27.9898  -16.8641    0.0000 C   0  0  0  0  0  0  0  0  0  0  0  0
   18.1001  -16.1725    0.0000 C   0  0  0  0  0  0  0  0  0  0  0  0
   29.2032  -16.1599    0.0000 C   0  0  0  0  0  0  0  0  0  0  0  0
   16.8804  -16.8767    0.0000 C   0  0  0  0  0  0  0  0  0  0  0  0
   30.5990  -16.1599    0.0000 C   0  0  0  0  0  0  0  0  0  0  0  0
   15.6732  -16.1789    0.0000 C   0  0  0  0  0  0  0  0  0  0  0  0
   31.8124  -16.8641    0.0000 C   0  0  0  0  0  0  0  0  0  0  0  0
   14.4598  -16.8830    0.0000 O   0  0  0  0  0  0  0  0  0  0  0  0
   15.6670  -14.7830    0.0000 O   0  0  0  0  0  0  0  0  0  0  0  0
   33.0260  -16.1725    0.0000 C   0  0  0  0  0  0  0  0  0  0  0  0
   34.4217  -16.1725    0.0000 C   0  0  0  0  0  0  0  0  0  0  0  0
   35.6351  -16.8705    0.0000 C   0  0  0  0  0  0  0  0  0  0  0  0
   36.8423  -16.1725    0.0000 C   0  0  0  0  0  0  0  0  0  0  0  0
   24.3909  -19.4297    0.0000 C   0  0  0  0  0  0  0  0  0  0  0  0
   25.5979  -18.7319    0.0000 C   0  0  0  0  0  0  0  0  0  0  0  0
   22.9893  -19.4297    0.0000 C   0  0  0  0  0  0  0  0  0  0  0  0
   26.8111  -19.4297    0.0000 C   0  0  0  0  0  0  0  0  0  0  0  0
   21.7823  -18.7319    0.0000 C   0  0  0  0  0  0  0  0  0  0  0  0
   28.2130  -19.4297    0.0000 C   0  0  0  0  0  0  0  0  0  0  0  0
   20.5691  -19.4297    0.0000 C   0  0  0  0  0  0  0  0  0  0  0  0
   29.4199  -18.7319    0.0000 C   0  0  0  0  0  0  0  0  0  0  0  0
   19.3496  -18.7193    0.0000 C   0  0  0  0  0  0  0  0  0  0  0  0
   30.6331  -19.4297    0.0000 C   0  0  0  0  0  0  0  0  0  0  0  0
   18.1302  -19.4297    0.0000 C   0  0  0  0  0  0  0  0  0  0  0  0
   32.0286  -19.4297    0.0000 C   0  0  0  0  0  0  0  0  0  0  0  0
   16.9168  -18.7319    0.0000 C   0  0  0  0  0  0  0  0  0  0  0  0
   33.2418  -18.7193    0.0000 C   0  0  0  0  0  0  0  0  0  0  0  0
   15.7100  -19.4297    0.0000 O   0  0  0  0  0  0  0  0  0  0  0  0
   16.9168  -17.3303    0.0000 O   0  0  0  0  0  0  0  0  0  0  0  0
   34.4549  -19.4172    0.0000 C   0  0  0  0  0  0  0  0  0  0  0  0
   35.6683  -18.7131    0.0000 C   0  0  0  0  0  0  0  0  0  0  0  0
   36.8815  -19.4046    0.0000 C   0  0  0  0  0  0  0  0  0  0  0  0
   38.0883  -18.7006    0.0000 C   0  0  0  0  0  0  0  0  0  0  0  0
   23.1055  -16.2032    0.0000 C   0  0  0  0  0  0  0  0  0  0  0  0
   24.3152  -16.9068    0.0000 C   0  0  0  0  0  0  0  0  0  0  0  0
   21.8956  -16.9068    0.0000 C   0  0  0  0  0  0  0  0  0  0  0  0
   25.5311  -16.2032    0.0000 C   0  0  0  0  0  0  0  0  0  0  0  0
   20.6797  -16.2032    0.0000 C   0  0  0  0  0  0  0  0  0  0  0  0
   26.9324  -16.2032    0.0000 C   0  0  0  0  0  0  0  0  0  0  0  0
   19.4761  -16.9068    0.0000 C   0  0  0  0  0  0  0  0  0  0  0  0
   28.1422  -16.9068    0.0000 C   0  0  0  0  0  0  0  0  0  0  0  0
   18.2662  -16.2032    0.0000 C   0  0  0  0  0  0  0  0  0  0  0  0
   29.3519  -16.2032    0.0000 C   0  0  0  0  0  0  0  0  0  0  0  0
   17.0566  -16.9068    0.0000 C   0  0  0  0  0  0  0  0  0  0  0  0
   30.5678  -16.9068    0.0000 C   0  0  0  0  0  0  0  0  0  0  0  0
   15.8467  -16.2032    0.0000 C   0  0  0  0  0  0  0  0  0  0  0  0
   31.7714  -16.2032    0.0000 C   0  0  0  0  0  0  0  0  0  0  0  0
   14.6368  -16.9068    0.0000 O   0  0  0  0  0  0  0  0  0  0  0  0
   15.8467  -14.8019    0.0000 O   0  0  0  0  0  0  0  0  0  0  0  0
   32.9813  -16.9068    0.0000 C   0  0  0  0  0  0  0  0  0  0  0  0
   34.1912  -16.2032    0.0000 C   0  0  0  0  0  0  0  0  0  0  0  0
   35.4008  -16.9068    0.0000 C   0  0  0  0  0  0  0  0  0  0  0  0
   36.6107  -16.2032    0.0000 C   0  0  0  0  0  0  0  0  0  0  0  0
   19.7116  -16.4984    0.0000 C   0  0  0  0  0  0  0  0  0  0  0  0
   20.9283  -17.1928    0.0000 C   0  0  0  0  0  0  0  0  0  0  0  0
   18.4889  -17.1928    0.0000 C   0  0  0  0  0  0  0  0  0  0  0  0
   22.1388  -16.4984    0.0000 C   0  0  0  0  0  0  0  0  0  0  0  0
   17.2784  -16.4984    0.0000 C   0  0  0  0  0  0  0  0  0  0  0  0
   23.3556  -17.1928    0.0000 C   0  0  0  0  0  0  0  0  0  0  0  0
   16.0618  -17.1928    0.0000 C   0  0  0  0  0  0  0  0  0  0  0  0
   24.5660  -16.4984    0.0000 C   0  0  0  0  0  0  0  0  0  0  0  0
   14.8513  -16.4984    0.0000 C   0  0  0  0  0  0  0  0  0  0  0  0
   25.7888  -17.1928    0.0000 C   0  0  0  0  0  0  0  0  0  0  0  0
   13.6286  -17.1928    0.0000 C   0  0  0  0  0  0  0  0  0  0  0  0
   26.9993  -16.4984    0.0000 C   0  0  0  0  0  0  0  0  0  0  0  0
   12.4179  -16.4984    0.0000 C   0  0  0  0  0  0  0  0  0  0  0  0
   28.2160  -17.1928    0.0000 C   0  0  0  0  0  0  0  0  0  0  0  0
   11.2013  -17.1989    0.0000 O   0  0  0  0  0  0  0  0  0  0  0  0
   29.4264  -16.4984    0.0000 C   0  0  0  0  0  0  0  0  0  0  0  0
   30.6493  -17.1928    0.0000 C   0  0  0  0  0  0  0  0  0  0  0  0
   31.8598  -16.4984    0.0000 C   0  0  0  0  0  0  0  0  0  0  0  0
   33.0763  -17.1928    0.0000 C   0  0  0  0  0  0  0  0  0  0  0  0
   12.4167  -15.0958    0.0000 O   0  0  0  0  0  0  0  0  0  0  0  0
   29.6871  -18.2068    0.0000 C   0  0  0  0  0  0  0  0  0  0  0  0
   30.9032  -17.5051    0.0000 C   0  0  0  0  0  0  0  0  0  0  0  0
   28.4708  -17.5051    0.0000 C   0  0  0  0  0  0  0  0  0  0  0  0
   32.1078  -18.2068    0.0000 C   0  0  0  0  0  0  0  0  0  0  0  0
   27.2664  -18.2068    0.0000 C   0  0  0  0  0  0  0  0  0  0  0  0
   33.3240  -17.5051    0.0000 C   0  0  0  0  0  0  0  0  0  0  0  0
   26.0501  -17.5051    0.0000 C   0  0  0  0  0  0  0  0  0  0  0  0
   34.5286  -18.2068    0.0000 C   0  0  0  0  0  0  0  0  0  0  0  0
   24.8457  -18.2068    0.0000 C   0  0  0  0  0  0  0  0  0  0  0  0
   35.7447  -17.5051    0.0000 C   0  0  0  0  0  0  0  0  0  0  0  0
   23.6295  -17.5051    0.0000 C   0  0  0  0  0  0  0  0  0  0  0  0
   36.9608  -18.2068    0.0000 C   0  0  0  0  0  0  0  0  0  0  0  0
   22.4192  -18.2127    0.0000 O   0  0  0  0  0  0  0  0  0  0  0  0
   23.6353  -16.1077    0.0000 O   0  0  0  0  0  0  0  0  0  0  0  0
   38.1654  -17.5051    0.0000 C   0  0  0  0  0  0  0  0  0  0  0  0
   39.3815  -18.2068    0.0000 C   0  0  0  0  0  0  0  0  0  0  0  0
   40.5919  -17.5051    0.0000 C   0  0  0  0  0  0  0  0  0  0  0  0
   41.8023  -18.2068    0.0000 C   0  0  0  0  0  0  0  0  0  0  0  0
   26.7835  -20.2459    0.0000 C   0  0  0  0  0  0  0  0  0  0  0  0
   25.5932  -19.5631    0.0000 O   0  0  0  0  0  0  0  0  0  0  0  0
   26.7835  -21.6050    0.0000 C   0  0  0  0  0  0  0  0  0  0  0  0
   28.1649  -18.8157    0.0000 O   0  0  0  0  0  0  0  0  0  0  0  0
   24.4095  -20.2459    0.0000 C   0  0  0  0  0  0  0  0  0  0  0  0
   25.5932  -22.2877    0.0000 C   0  0  0  0  0  0  0  0  0  0  0  0
   27.9610  -22.2877    0.0000 O   0  0  0  0  0  0  0  0  0  0  0  0
   29.5303  -18.8157    0.0000 C   0  0  0  0  0  0  0  0  0  0  0  0
   24.4095  -21.6050    0.0000 C   0  0  0  0  0  0  0  0  0  0  0  0
   23.2445  -19.5631    0.0000 C   0  0  0  0  0  0  0  0  0  0  0  0
   25.5932  -23.7829    0.0000 O   0  0  0  0  0  0  0  0  0  0  0  0
   29.5449  -20.1248    0.0000 C   0  0  0  0  0  0  0  0  0  0  0  0
   29.5303  -17.4503    0.0000 C   0  0  0  0  0  0  0  0  0  0  0  0
   30.8216  -18.8157    0.0000 C   0  0  0  0  0  0  0  0  0  0  0  0
   23.2445  -22.2877    0.0000 O   0  0  0  0  0  0  0  0  0  0  0  0
   22.1985  -20.4401    0.0000 O   0  0  0  0  0  0  0  0  0  0  0  0
   29.5553  -21.4841    0.0000 N   0  0  0  0  0  0  0  0  0  0  0  0
  1  2  1  0
  2  3  1  0
  3  4  1  0
  3  5  2  0
  4  6  1  0
  6  7  1  6
  6  8  1  0
  8  9  2  0
  8 10  1  0
  2 11  1  1
 12 13  1  0
 12 14  1  0
 13 15  1  0
 14 16  1  0
 15 17  2  0
 16 18  1  0
 17 19  1  0
 18 20  1  0
 19 21  1  0
 20 22  1  0
 21 23  2  0
 22 24  1  0
 23 25  1  0
 24 26  1  0
 24 27  2  0
 25 28  1  0
 28 29  2  0
 29 30  1  0
 30 31  1  0
 32 33  1  0
 32 34  2  0
 33 35  1  0
 34 36  1  0
 35 37  2  0
 36 38  1  0
 37 39  1  0
 38 40  1  0
 39 41  1  0
 40 42  1  0
 41 43  2  0
 42 44  1  0
 43 45  1  0
 44 46  1  0
 44 47  2  0
 45 48  1  0
 48 49  1  0
 49 50  1  0
 50 51  1  0
 52 53  1  0
 52 54  1  0
 53 55  1  0
 54 56  1  0
 55 57  2  0
 56 58  1  0
 57 59  1  0
 58 60  1  0
 59 61  1  0
 60 62  1  0
 61 63  1  0
 62 64  1  0
 63 65  1  0
 64 66  1  0
 64 67  2  0
 65 68  1  0
 68 69  1  0
 69 70  1  0
 70 71  1  0
 89 90  1  0
 72 73  1  0
 72 74  1  0
 73 75  1  0
 74 76  1  0
 75 77  1  0
 76 78  1  0
 77 79  1  0
 78 80  1  0
 79 81  1  0
 80 82  1  0
 81 83  1  0
 82 84  1  0
 83 85  1  0
 84 86  1  0
 85 87  1  0
 87 88  1  0
 88 89  1  0
 84 91  2  0
 92 93  1  0
 92 94  1  0
 93 95  1  0
 94 96  1  0
 95 97  1  0
 96 98  1  0
 97 99  1  0
 98100  1  0
 99101  1  0
100102  1  0
101103  1  0
102104  1  0
102105  2  0
103106  1  0
106107  1  0
107108  1  0
108109  1  0
110111  1  0
110112  1  0
110113  1  1
111114  1  0
112115  1  0
112116  1  6
113117  1  0
114118  1  0
114119  1  1
115120  1  1
117121  1  0
117122  1  0
117123  1  0
118124  1  6
119125  1  0
121126  3  0
115118  1  0
V    7 *
V   11 *
M  STY  1   1 SRU
M  SLB  1   1   1
M  SCN  1   1 HT 
M  SAL   1  5   3   4   5   6   7
M  SDI   1  4   25.8300  -23.5900   25.8300  -19.1100
M  SDI   1  4   28.4900  -19.1100   28.4900  -23.5900
M  SMT   1 n
M  END
