 
 
 
 31 34  0  0  1  0  0  0  0  0999 V2000
   17.6400  -13.9300    0.0000 C   0  0  0  0  0  0  0  0  0  0  0  0
   17.6400  -15.3300    0.0000 C   0  0  0  0  0  0  0  0  0  0  0  0
   18.8300  -16.0300    0.0000 C   0  0  0  0  0  0  0  0  0  0  0  0
   20.0900  -15.3300    0.0000 C   0  0  0  0  0  0  0  0  0  0  0  0
   20.0900  -13.9300    0.0000 C   0  0  0  0  0  0  0  0  0  0  0  0
   18.8300  -13.2300    0.0000 C   0  0  0  0  0  0  0  0  0  0  0  0
   21.4200  -15.7500    0.0000 N   0  0  0  0  0  0  0  0  0  0  0  0
   22.1900  -14.6300    0.0000 C   0  0  0  0  0  0  0  0  0  0  0  0
   21.4200  -13.5100    0.0000 O   0  0  0  0  0  0  0  0  0  0  0  0
   23.5900  -14.6300    0.0000 O   0  0  0  0  0  0  0  0  0  0  0  0
   16.4500  -16.0300    0.0000 C   0  0  0  0  0  0  0  0  0  0  0  0
   15.2600  -15.3300    0.0000 C   0  0  0  0  0  0  0  0  0  0  0  0
   14.0000  -16.0300    0.0000 C   0  0  0  0  0  0  0  0  0  0  0  0
   14.0000  -17.4300    0.0000 C   0  0  0  0  0  0  0  0  0  0  0  0
   15.1900  -18.1300    0.0000 C   0  0  0  0  0  0  0  0  0  0  0  0
   16.4500  -17.4300    0.0000 C   0  0  0  0  0  0  0  0  0  0  0  0
   12.8100  -18.1300    0.0000 C   0  0  0  0  0  0  0  0  0  0  0  0
   11.6200  -17.4300    0.0000 C   0  0  0  0  0  0  0  0  0  0  0  0
   10.4300  -18.1300    0.0000 N   0  0  0  0  0  0  0  0  0  0  0  0
   11.6200  -16.0300    0.0000 C   0  0  0  0  0  0  0  0  0  0  0  0
    9.2400  -17.4300    0.0000 C   0  0  0  0  0  0  0  0  0  0  0  0
    8.0500  -18.1300    0.0000 C   0  0  0  0  0  0  0  0  0  0  0  0
    9.2400  -16.0300    0.0000 O   0  0  0  0  0  0  0  0  0  0  0  0
    6.9300  -17.2200    0.0000 O   0  0  0  0  0  0  0  0  0  0  0  0
    5.6000  -17.5700    0.0000 C   0  0  0  0  0  0  0  0  0  0  0  0
    4.9700  -18.8300    0.0000 C   0  0  0  0  0  0  0  0  0  0  0  0
    8.0500  -19.5300    0.0000 C   0  0  0  0  0  0  0  0  0  0  0  0
    5.6000  -20.0900    0.0000 C   0  0  0  0  0  0  0  0  0  0  0  0
    6.9300  -20.3700    0.0000 N   0  0  0  0  0  0  0  0  0  0  0  0
   11.6200  -14.6300    0.0000 N   0  0  0  0  0  0  0  0  0  0  0  0
   21.8754  -17.0739    0.0000 C   0  0  0  0  0  0  0  0  0  0  0  0
  1  2  2  0     0  0
  2  3  1  0     0  0
  3  4  2  0     0  0
  4  5  1  0     0  0
  5  6  2  0     0  0
  1  6  1  0     0  0
  4  7  1  0     0  0
  7  8  1  0     0  0
  8  9  1  0     0  0
  5  9  1  0     0  0
  8 10  2  0     0  0
  2 11  1  0     0  0
 11 12  2  0     0  0
 12 13  1  0     0  0
 13 14  2  0     0  0
 14 15  1  0     0  0
 15 16  2  0     0  0
 11 16  1  0     0  0
 14 17  1  0     0  0
 17 18  1  0     0  0
 18 19  1  0     0  0
 18 20  1  6     0  0
 19 21  1  0     0  0
 22 21  1  6     0  0
 21 23  2  0     0  0
 25 26  1  0     0  0
 22 27  1  0     0  0
 26 28  1  0     0  0
 24 25  1  0     0  0
 27 29  1  0     0  0
 22 24  1  0     0  0
 28 29  1  0     0  0
 20 30  3  0     0  0
  7 31  1  0     0  0
M  END
