 
 
 
 55 59  0  0  1  0  0  0  0  0999 V2000
   15.9120  -18.2952    0.0000 N   0  0  0  0  0  0  0  0  0  0  0  0
   15.9120  -19.6972    0.0000 C   0  0  0  0  0  0  0  0  0  0  0  0
   17.1037  -20.3981    0.0000 C   0  0  0  0  0  0  0  0  0  0  0  0
   18.3654  -19.6972    0.0000 C   0  0  0  0  0  0  0  0  0  0  0  0
   18.3654  -18.2952    0.0000 C   0  0  0  0  0  0  0  0  0  0  0  0
   17.1037  -17.5943    0.0000 C   0  0  0  0  0  0  0  0  0  0  0  0
   19.5571  -20.3981    0.0000 C   0  0  0  0  0  0  0  0  0  0  0  0
   20.7487  -19.6972    0.0000 O   0  0  0  0  0  0  0  0  0  0  0  0
   19.5571  -21.8000    0.0000 O   0  0  0  0  0  0  0  0  0  0  0  0
   14.7204  -17.5943    0.0000 C   0  0  0  0  0  0  0  0  0  0  0  0
   14.7204  -16.1923    0.0000 C   0  0  0  0  0  0  0  0  0  0  0  0
   13.4586  -15.4914    0.0000 C   0  0  0  0  0  0  0  0  0  0  0  0
   12.2670  -16.1923    0.0000 C   0  0  0  0  0  0  0  0  0  0  0  0
   12.2670  -17.5943    0.0000 C   0  0  0  0  0  0  0  0  0  0  0  0
   13.4586  -18.2952    0.0000 C   0  0  0  0  0  0  0  0  0  0  0  0
   11.0754  -18.2952    0.0000 C   0  0  0  0  0  0  0  0  0  0  0  0
    9.8136  -18.9962    0.0000 F   0  0  0  0  0  0  0  0  0  0  0  0
   10.3744  -17.1036    0.0000 F   0  0  0  0  0  0  0  0  0  0  0  0
   11.7763  -19.4869    0.0000 F   0  0  0  0  0  0  0  0  0  0  0  0
   15.9120  -15.4914    0.0000 C   0  0  0  0  0  0  0  0  0  0  0  0
   17.3140  -15.4914    0.0000 C   0  0  0  0  0  0  0  0  0  0  0  0
   17.8046  -14.2296    0.0000 N   0  0  0  0  0  0  0  0  0  0  0  0
   16.6831  -13.3885    0.0000 C   0  0  0  0  0  0  0  0  0  0  0  0
   15.5615  -14.1595    0.0000 C   0  0  0  0  0  0  0  0  0  0  0  0
   18.9963  -13.5286    0.0000 C   0  0  0  0  0  0  0  0  0  0  0  0
   20.1879  -14.2296    0.0000 C   0  0  0  0  0  0  0  0  0  0  0  0
   20.6085  -15.5615    0.0000 C   0  0  0  0  0  0  0  0  0  0  0  0
   22.0104  -15.5615    0.0000 N   0  0  0  0  0  0  0  0  0  0  0  0
   22.4310  -14.2997    0.0000 C   0  0  0  0  0  0  0  0  0  0  0  0
   21.3095  -13.4586    0.0000 C   0  0  0  0  0  0  0  0  0  0  0  0
   22.7815  -16.7531    0.0000 C   0  0  0  0  0  0  0  0  0  0  0  0
   22.2908  -18.0849    0.0000 C   0  0  0  0  0  0  0  0  0  0  0  0
   23.4825  -18.9261    0.0000 C   0  0  0  0  0  0  0  0  0  0  0  0
   24.6040  -18.0849    0.0000 C   0  0  0  0  0  0  0  0  0  0  0  0
   24.1834  -16.7531    0.0000 C   0  0  0  0  0  0  0  0  0  0  0  0
   22.5011  -11.2856    0.0000 C   0  0  0  0  0  0  0  0  0  0  0  0
   22.5011  -12.7576    0.0000 C   0  0  0  0  0  0  0  0  0  0  0  0
   23.6928  -13.4586    0.0000 C   0  0  0  0  0  0  0  0  0  0  0  0
   24.9545  -12.7576    0.0000 C   0  0  0  0  0  0  0  0  0  0  0  0
   24.9545  -11.2856    0.0000 C   0  0  0  0  0  0  0  0  0  0  0  0
   23.6928  -10.5846    0.0000 C   0  0  0  0  0  0  0  0  0  0  0  0
   26.1461  -10.5846    0.0000 O   0  0  0  0  0  0  0  0  0  0  0  0
   27.4079  -11.2856    0.0000 C   0  0  0  0  0  0  0  0  0  0  0  0
   20.1178  -12.7576    0.0000 H   0  0  0  0  0  0  0  0  0  0  0  0
   19.0664  -15.0708    0.0000 F   0  0  0  0  0  0  0  0  0  0  0  0
   18.9963  -12.1267    0.0000 O   0  0  0  0  0  0  0  0  0  0  0  0
   16.2625  -16.8232    0.0000 H   0  0  0  0  0  0  0  0  0  0  0  0
   14.3699  -13.4586    0.0000 C   0  0  0  0  0  0  0  0  0  0  0  0
   13.1783  -14.1595    0.0000 O   0  0  0  0  0  0  0  0  0  0  0  0
   11.9866  -13.4586    0.0000 C   0  0  0  0  0  0  0  0  0  0  0  0
   29.2600  -20.4400    0.0000 P   0  0  0  0  0  0  0  0  0  0  0  0
   27.8600  -20.4400    0.0000 O   0  0  0  0  0  0  0  0  0  0  0  0
   30.6600  -20.4400    0.0000 O   0  0  0  0  0  0  0  0  0  0  0  0
   29.2600  -21.8400    0.0000 O   0  0  0  0  0  0  0  0  0  0  0  0
   29.2600  -19.0400    0.0000 O   0  0  0  0  0  0  0  0  0  0  0  0
  1  2  1  0     0  0
  2  3  1  0     0  0
  3  4  1  0     0  0
  4  5  1  0     0  0
  5  6  1  0     0  0
  1  6  1  0     0  0
  4  7  1  0     0  0
  7  8  1  0     0  0
  7  9  2  0     0  0
  1 10  1  0     0  0
 10 11  2  0     0  0
 11 12  1  0     0  0
 12 13  2  0     0  0
 13 14  1  0     0  0
 14 15  2  0     0  0
 10 15  1  0     0  0
 14 16  1  0     0  0
 16 17  1  0     0  0
 16 18  1  0     0  0
 16 19  1  0     0  0
 20 11  1  6     0  0
 20 21  1  0     0  0
 21 22  1  0     0  0
 22 23  1  0     0  0
 23 24  1  0     0  0
 20 24  1  0     0  0
 26 25  1  1     0  0
 25 22  1  0     0  0
 26 27  1  0     0  0
 27 28  1  0     0  0
 28 29  1  0     0  0
 29 30  1  0     0  0
 26 30  1  0     0  0
 28 31  1  0     0  0
 31 32  1  0     0  0
 32 33  1  0     0  0
 33 34  1  0     0  0
 34 35  1  0     0  0
 31 35  1  0     0  0
 36 37  2  0     0  0
 37 38  1  0     0  0
 38 39  2  0     0  0
 39 40  1  0     0  0
 40 41  2  0     0  0
 36 41  1  0     0  0
 30 37  1  6     0  0
 40 42  1  0     0  0
 42 43  1  0     0  0
 30 44  1  1     0  0
 26 45  1  6     0  0
 25 46  2  0     0  0
 20 47  1  1     0  0
 24 48  1  1     0  0
 48 49  1  0     0  0
 49 50  1  0     0  0
 51 52  1  0     0  0
 51 53  1  0     0  0
 51 54  1  0     0  0
 51 55  2  0     0  0
M  END
