 
 
 
 31 33  0  0  0  0  0  0  0  0999 V2000
   20.5480  -15.0780    0.0000 N   0  0  0  0  0  0  0  0  0  0  0  0
   20.5480  -16.4806    0.0000 C   0  0  0  0  0  0  0  0  0  0  0  0
   21.7402  -17.1819    0.0000 N   0  0  0  0  0  0  0  0  0  0  0  0
   23.0025  -16.4806    0.0000 C   0  0  0  0  0  0  0  0  0  0  0  0
   23.0025  -15.0780    0.0000 C   0  0  0  0  0  0  0  0  0  0  0  0
   21.7402  -14.3767    0.0000 C   0  0  0  0  0  0  0  0  0  0  0  0
   21.7402  -12.9741    0.0000 O   0  0  0  0  0  0  0  0  0  0  0  0
   19.2155  -14.6572    0.0000 N   0  0  0  0  0  0  0  0  0  0  0  0
   18.3739  -15.7793    0.0000 C   0  0  0  0  0  0  0  0  0  0  0  0
   19.2155  -16.9013    0.0000 S   0  0  0  0  0  0  0  0  0  0  0  0
   16.9713  -15.7793    0.0000 C   0  0  0  0  0  0  0  0  0  0  0  0
   16.2701  -14.5871    0.0000 C   0  0  0  0  0  0  0  0  0  0  0  0
   14.8675  -14.5871    0.0000 N   0  0  0  0  0  0  0  0  0  0  0  0
   14.1662  -15.7793    0.0000 C   0  0  0  0  0  0  0  0  0  0  0  0
   14.8675  -16.9715    0.0000 C   0  0  0  0  0  0  0  0  0  0  0  0
   16.2701  -16.9715    0.0000 C   0  0  0  0  0  0  0  0  0  0  0  0
   14.1662  -18.1637    0.0000 N   0  0  0  0  0  0  0  0  0  0  0  0
   12.7636  -18.1637    0.0000 C   0  0  0  0  0  0  0  0  0  0  0  0
   12.0623  -16.9715    0.0000 O   0  0  0  0  0  0  0  0  0  0  0  0
   12.0623  -19.3559    0.0000 C   0  0  0  0  0  0  0  0  0  0  0  0
   10.6597  -19.3559    0.0000 N   0  0  0  0  0  0  0  0  0  0  0  0
   24.1947  -17.1819    0.0000 N   0  0  0  0  0  0  0  0  0  0  0  0
   24.1947  -18.5845    0.0000 C   0  0  0  0  0  0  0  0  0  0  0  0
   25.3869  -19.2858    0.0000 C   0  0  0  0  0  0  0  0  0  0  0  0
   26.6492  -18.5845    0.0000 N   0  0  0  0  0  0  0  0  0  0  0  0
   26.6492  -17.1819    0.0000 C   0  0  0  0  0  0  0  0  0  0  0  0
   25.3869  -16.4806    0.0000 C   0  0  0  0  0  0  0  0  0  0  0  0
   30.7300  -18.3400    0.0000 C   0  0  0  0  0  0  0  0  0  0  0  0
   31.9424  -19.0400    0.0000 C   0  0  0  0  0  0  0  0  0  0  0  0
   29.5176  -19.0400    0.0000 O   0  0  0  0  0  0  0  0  0  0  0  0
   30.7300  -16.9400    0.0000 O   0  0  0  0  0  0  0  0  0  0  0  0
  1  2  1  0     0  0
  2  3  2  0     0  0
  3  4  1  0     0  0
  4  5  2  0     0  0
  5  6  1  0     0  0
  1  6  1  0     0  0
  6  7  2  0     0  0
  1  8  1  0     0  0
  8  9  2  0     0  0
  9 10  1  0     0  0
  2 10  1  0     0  0
  9 11  1  0     0  0
 11 12  2  0     0  0
 12 13  1  0     0  0
 13 14  2  0     0  0
 14 15  1  0     0  0
 15 16  2  0     0  0
 11 16  1  0     0  0
 15 17  1  0     0  0
 17 18  1  0     0  0
 18 19  2  0     0  0
 18 20  1  0     0  0
 20 21  1  0     0  0
  4 22  1  0     0  0
 22 23  1  0     0  0
 23 24  1  0     0  0
 24 25  1  0     0  0
 25 26  1  0     0  0
 26 27  1  0     0  0
 22 27  1  0     0  0
 28 29  1  0     0  0
 28 30  1  0     0  0
 28 31  2  0     0  0
M  END
