 
 
 
 34 36  0  0  1  0  0  0  0  0999 V2000
   12.7400  -16.3100    0.0000 C   0  0  0  0  0  0  0  0  0  0  0  0
   12.7400  -17.7100    0.0000 C   0  0  0  0  0  0  0  0  0  0  0  0
   13.9524  -18.4100    0.0000 C   0  0  0  0  0  0  0  0  0  0  0  0
   15.1649  -17.7100    0.0000 C   0  0  0  0  0  0  0  0  0  0  0  0
   15.1649  -16.3100    0.0000 C   0  0  0  0  0  0  0  0  0  0  0  0
   13.9524  -15.6100    0.0000 C   0  0  0  0  0  0  0  0  0  0  0  0
   16.4964  -18.1426    0.0000 N   0  0  0  0  0  0  0  0  0  0  0  0
   17.3193  -17.0100    0.0000 N   0  0  0  0  0  0  0  0  0  0  0  0
   16.4964  -15.8774    0.0000 C   0  0  0  0  0  0  0  0  0  0  0  0
   16.9275  -19.4694    0.0000 C   0  0  0  0  0  0  0  0  0  0  0  0
   18.3069  -19.7626    0.0000 C   0  0  0  0  0  0  0  0  0  0  0  0
   19.2695  -18.6931    0.0000 C   0  0  0  0  0  0  0  0  0  0  0  0
   18.7363  -21.0827    0.0000 C   0  0  0  0  0  0  0  0  0  0  0  0
   11.5276  -15.6100    0.0000 O   0  0  0  0  0  0  0  0  0  0  0  0
   11.5276  -14.2100    0.0000 C   0  0  0  0  0  0  0  0  0  0  0  0
   12.7567  -13.5002    0.0000 C   0  0  0  0  0  0  0  0  0  0  0  0
   12.7566  -12.1002    0.0000 C   0  0  0  0  0  0  0  0  0  0  0  0
   11.5440  -11.4003    0.0000 C   0  0  0  0  0  0  0  0  0  0  0  0
   10.3149  -12.1101    0.0000 C   0  0  0  0  0  0  0  0  0  0  0  0
   10.3151  -13.5101    0.0000 C   0  0  0  0  0  0  0  0  0  0  0  0
   13.9608  -14.1953    0.0000 F   0  0  0  0  0  0  0  0  0  0  0  0
   11.5439  -10.0100    0.0000 F   0  0  0  0  0  0  0  0  0  0  0  0
   11.5276  -18.4100    0.0000 C   0  0  0  0  0  0  0  0  0  0  0  0
   10.3321  -17.7196    0.0000 N   0  0  0  0  0  0  0  0  0  0  0  0
   11.5275  -19.8098    0.0000 O   0  0  0  0  0  0  0  0  0  0  0  0
    9.1447  -18.4051    0.0000 C   0  0  0  0  0  0  0  0  0  0  0  0
    7.9535  -17.7171    0.0000 C   0  0  0  0  0  0  0  0  0  0  0  0
    6.7640  -18.4038    0.0000 C   0  0  0  0  0  0  0  0  0  0  0  0
    9.1445  -19.8098    0.0000 C   0  0  0  0  0  0  0  0  0  0  0  0
    7.9512  -20.4988    0.0000 N   0  0  0  0  0  0  0  0  0  0  0  0
   10.3760  -20.5211    0.0000 O   0  0  0  0  0  0  0  0  0  0  0  0
    5.5739  -17.7165    0.0000 N   0  0  0  0  0  0  0  0  0  0  0  0
    4.3838  -18.4035    0.0000 C   0  0  0  0  0  0  0  0  0  0  0  0
    5.5739  -16.3102    0.0000 C   0  0  0  0  0  0  0  0  0  0  0  0
  1  2  1  0     0  0
  2  3  2  0     0  0
  3  4  1  0     0  0
  4  5  2  0     0  0
  5  6  1  0     0  0
  1  6  2  0     0  0
  4  7  1  0     0  0
  7  8  1  0     0  0
  8  9  2  0     0  0
  5  9  1  0     0  0
  7 10  1  0     0  0
 10 11  1  0     0  0
 11 12  1  0     0  0
 11 13  1  0     0  0
  1 14  1  0     0  0
 14 15  1  0     0  0
 15 16  2  0     0  0
 16 17  1  0     0  0
 17 18  2  0     0  0
 18 19  1  0     0  0
 19 20  2  0     0  0
 15 20  1  0     0  0
 16 21  1  0     0  0
 18 22  1  0     0  0
  2 23  1  0     0  0
 23 24  1  0     0  0
 23 25  2  0     0  0
 24 26  1  0     0  0
 26 27  1  0     0  0
 27 28  1  0     0  0
 26 29  1  6     0  0
 29 30  1  0     0  0
 29 31  2  0     0  0
 28 32  1  0     0  0
 32 33  1  0     0  0
 32 34  1  0     0  0
M  END
