 
 
 
 26 28  0  0  1  0  0  0  0  0999 V2000
   14.2800  -13.7900    0.0000 C   0  0  0  0  0  0  0  0  0  0  0  0
   14.2800  -12.3900    0.0000 C   0  0  0  0  0  0  0  0  0  0  0  0
   13.0900  -11.6900    0.0000 C   0  0  0  0  0  0  0  0  0  0  0  0
   11.8300  -12.3900    0.0000 C   0  0  0  0  0  0  0  0  0  0  0  0
   11.8300  -13.7900    0.0000 C   0  0  0  0  0  0  0  0  0  0  0  0
   13.0900  -14.4900    0.0000 C   0  0  0  0  0  0  0  0  0  0  0  0
   10.6400  -11.6900    0.0000 C   0  0  0  0  0  0  0  0  0  0  0  0
    9.4500  -12.3900    0.0000 C   0  0  0  0  0  0  0  0  0  0  0  0
    9.4500  -13.7900    0.0000 N   0  0  0  0  0  0  0  0  0  0  0  0
   10.6400  -14.4900    0.0000 C   0  0  0  0  0  0  0  0  0  0  0  0
   10.6400  -15.8900    0.0000 O   0  0  0  0  0  0  0  0  0  0  0  0
    9.4500  -16.5900    0.0000 C   0  0  0  0  0  0  0  0  0  0  0  0
    9.4500  -17.9900    0.0000 C   0  0  0  0  0  0  0  0  0  0  0  0
    8.3300  -18.8300    0.0000 N   0  0  0  0  0  0  0  0  0  0  0  0
    8.7500  -20.0900    0.0000 C   0  0  0  0  0  0  0  0  0  0  0  0
   10.1500  -20.0900    0.0000 C   0  0  0  0  0  0  0  0  0  0  0  0
   10.5700  -18.8300    0.0000 C   0  0  0  0  0  0  0  0  0  0  0  0
    7.9100  -21.2100    0.0000 O   0  0  0  0  0  0  0  0  0  0  0  0
   10.9200  -21.2800    0.0000 F   0  0  0  0  0  0  0  0  0  0  0  0
   11.9000  -18.3400    0.0000 C   0  0  0  0  0  0  0  0  0  0  0  0
   12.9500  -19.3200    0.0000 C   0  0  0  0  0  0  0  0  0  0  0  0
   15.4700  -14.4900    0.0000 O   0  0  0  0  0  0  0  0  0  0  0  0
   16.6600  -13.7900    0.0000 C   0  0  0  0  0  0  0  0  0  0  0  0
   15.4700  -11.6900    0.0000 C   0  0  0  0  0  0  0  0  0  0  0  0
   16.6600  -12.3900    0.0000 N   0  0  0  0  0  0  0  0  0  0  0  0
   15.4700  -10.2900    0.0000 O   0  0  0  0  0  0  0  0  0  0  0  0
  1  2  2  0     0  0
  2  3  1  0     0  0
  3  4  2  0     0  0
  4  5  1  0     0  0
  5  6  2  0     0  0
  1  6  1  0     0  0
  4  7  1  0     0  0
  7  8  2  0     0  0
  8  9  1  0     0  0
  9 10  2  0     0  0
  5 10  1  0     0  0
 10 11  1  0     0  0
 11 12  1  0     0  0
 13 12  1  6     0  0
 13 14  1  0     0  0
 14 15  1  0     0  0
 15 16  1  0     0  0
 16 17  1  0     0  0
 13 17  1  0     0  0
 15 18  2  0     0  0
 16 19  1  6     0  0
 17 20  1  6     0  0
 20 21  1  0     0  0
  1 22  1  0     0  0
 22 23  1  0     0  0
  2 24  1  0     0  0
 24 25  1  0     0  0
 24 26  2  0     0  0
M  END
