 
 
 
 28 30  0  0  0  0  0  0  0  0999 V2000
   18.4800  -15.6800    0.0000 C   0  0  0  0  0  0  0  0  0  0  0  0
   17.2900  -16.3800    0.0000 C   0  0  0  0  0  0  0  0  0  0  0  0
   19.6700  -16.3800    0.0000 O   0  0  0  0  0  0  0  0  0  0  0  0
   18.4800  -14.2800    0.0000 O   0  0  0  0  0  0  0  0  0  0  0  0
   16.1000  -15.6800    0.0000 C   0  0  0  0  0  0  0  0  0  0  0  0
   14.9100  -16.3800    0.0000 C   0  0  0  0  0  0  0  0  0  0  0  0
   13.6500  -15.6800    0.0000 C   0  0  0  0  0  0  0  0  0  0  0  0
   13.6500  -14.2800    0.0000 C   0  0  0  0  0  0  0  0  0  0  0  0
   14.8400  -13.5800    0.0000 C   0  0  0  0  0  0  0  0  0  0  0  0
   16.1000  -14.2800    0.0000 C   0  0  0  0  0  0  0  0  0  0  0  0
   12.4600  -13.5800    0.0000 C   0  0  0  0  0  0  0  0  0  0  0  0
   11.2700  -14.2800    0.0000 C   0  0  0  0  0  0  0  0  0  0  0  0
   11.2700  -15.6800    0.0000 C   0  0  0  0  0  0  0  0  0  0  0  0
   10.0100  -16.3800    0.0000 C   0  0  0  0  0  0  0  0  0  0  0  0
    8.8200  -15.6800    0.0000 N   0  0  0  0  0  0  0  0  0  0  0  0
    8.8200  -14.2800    0.0000 C   0  0  0  0  0  0  0  0  0  0  0  0
   10.0100  -13.5800    0.0000 C   0  0  0  0  0  0  0  0  0  0  0  0
   10.0100  -17.7800    0.0000 C   0  0  0  0  0  0  0  0  0  0  0  0
   11.4100  -17.7800    0.0000 F   0  0  0  0  0  0  0  0  0  0  0  0
    8.6100  -17.7800    0.0000 F   0  0  0  0  0  0  0  0  0  0  0  0
   10.0100  -19.1800    0.0000 F   0  0  0  0  0  0  0  0  0  0  0  0
    7.6300  -13.5800    0.0000 C   0  0  0  0  0  0  0  0  0  0  0  0
    6.4400  -14.2800    0.0000 C   0  0  0  0  0  0  0  0  0  0  0  0
    5.1800  -13.5800    0.0000 C   0  0  0  0  0  0  0  0  0  0  0  0
    5.1800  -12.1800    0.0000 C   0  0  0  0  0  0  0  0  0  0  0  0
    6.3700  -11.4800    0.0000 C   0  0  0  0  0  0  0  0  0  0  0  0
    7.6300  -12.1800    0.0000 C   0  0  0  0  0  0  0  0  0  0  0  0
    3.9900  -14.2800    0.0000 Cl  0  0  0  0  0  0  0  0  0  0  0  0
  1  2  1  0     0  0
  1  3  1  0     0  0
  1  4  2  0     0  0
  2  5  1  0     0  0
  5  6  2  0     0  0
  6  7  1  0     0  0
  7  8  2  0     0  0
  8  9  1  0     0  0
  9 10  2  0     0  0
  5 10  1  0     0  0
  8 11  1  0     0  0
 11 12  1  0     0  0
 12 13  2  0     0  0
 13 14  1  0     0  0
 14 15  2  0     0  0
 15 16  1  0     0  0
 16 17  2  0     0  0
 12 17  1  0     0  0
 14 18  1  0     0  0
 18 19  1  0     0  0
 18 20  1  0     0  0
 18 21  1  0     0  0
 16 22  1  0     0  0
 22 23  2  0     0  0
 23 24  1  0     0  0
 24 25  2  0     0  0
 25 26  1  0     0  0
 26 27  2  0     0  0
 22 27  1  0     0  0
 24 28  1  0     0  0
M  END
