 
 
 
 34 37  0  0  1  0  0  0  0  0999 V2000
   16.8700  -17.3600    0.0000 N   0  0  0  0  0  0  0  0  0  0  0  0
   16.8700  -15.9600    0.0000 C   0  0  0  0  0  0  0  0  0  0  0  0
   15.4700  -15.9600    0.0000 C   0  0  0  0  0  0  0  0  0  0  0  0
   15.4700  -17.3600    0.0000 C   0  0  0  0  0  0  0  0  0  0  0  0
   17.8500  -18.3400    0.0000 S   0  0  0  0  0  0  0  0  0  0  0  0
   14.4900  -18.3400    0.0000 O   0  0  0  0  0  0  0  0  0  0  0  0
   14.2800  -15.2600    0.0000 N   0  0  0  0  0  0  0  0  0  0  0  0
   13.0900  -15.9600    0.0000 C   0  0  0  0  0  0  0  0  0  0  0  0
   13.0900  -17.3600    0.0000 O   0  0  0  0  0  0  0  0  0  0  0  0
   18.0600  -15.2600    0.0000 C   0  0  0  0  0  0  0  0  0  0  0  0
   18.0600  -13.8600    0.0000 N   0  0  0  0  0  0  0  0  0  0  0  0
   19.1800  -13.0200    0.0000 C   0  0  0  0  0  0  0  0  0  0  0  0
   18.7600  -11.6900    0.0000 C   0  0  0  0  0  0  0  0  0  0  0  0
   17.3600  -11.6900    0.0000 O   0  0  0  0  0  0  0  0  0  0  0  0
   16.9400  -13.0200    0.0000 C   0  0  0  0  0  0  0  0  0  0  0  0
   15.6100  -13.4400    0.0000 O   0  0  0  0  0  0  0  0  0  0  0  0
   18.8300  -19.3200    0.0000 O   0  0  0  0  0  0  0  0  0  0  0  0
   16.8700  -19.3200    0.0000 O   0  0  0  0  0  0  0  0  0  0  0  0
   18.8300  -17.3600    0.0000 O   0  0  0  0  0  0  0  0  0  0  0  0
   11.9000  -15.2600    0.0000 C   0  0  0  0  0  0  0  0  0  0  0  0
   10.7100  -15.9600    0.0000 C   0  0  0  0  0  0  0  0  0  0  0  0
   11.9000  -13.8600    0.0000 N   0  0  0  0  0  0  0  0  0  0  0  0
   13.0900  -13.1600    0.0000 O   0  0  0  0  0  0  0  0  0  0  0  0
   13.0900  -11.7600    0.0000 C   0  0  0  0  0  0  0  0  0  0  0  0
   11.9000  -11.0600    0.0000 C   0  0  0  0  0  0  0  0  0  0  0  0
   10.7100  -11.7600    0.0000 O   0  0  0  0  0  0  0  0  0  0  0  0
   11.9000   -9.6600    0.0000 O   0  0  0  0  0  0  0  0  0  0  0  0
    9.3800  -15.6100    0.0000 C   0  0  0  0  0  0  0  0  0  0  0  0
    8.6100  -16.7300    0.0000 S   0  0  0  0  0  0  0  0  0  0  0  0
    9.4500  -17.7800    0.0000 C   0  0  0  0  0  0  0  0  0  0  0  0
   10.7100  -17.3600    0.0000 N   0  0  0  0  0  0  0  0  0  0  0  0
   14.4900  -11.7600    0.0000 C   0  0  0  0  0  0  0  0  0  0  0  0
   13.7900  -10.5000    0.0000 C   0  0  0  0  0  0  0  0  0  0  0  0
    9.0535  -19.1227    0.0000 N   0  0  0  0  0  0  0  0  0  0  0  0
  1  2  1  0     0  0
  2  3  1  0     0  0
  3  4  1  0     0  0
  1  4  1  0     0  0
  1  5  1  0     0  0
  4  6  2  0     0  0
  3  7  1  1     0  0
  7  8  1  0     0  0
  8  9  2  0     0  0
  2 10  1  1     0  0
 10 11  1  0     0  0
 11 12  1  0     0  0
 12 13  1  0     0  0
 13 14  1  0     0  0
 14 15  1  0     0  0
 11 15  1  0     0  0
 15 16  2  0     0  0
  5 17  1  0     0  0
  5 18  2  0     0  0
  5 19  2  0     0  0
  8 20  1  0     0  0
 20 21  1  0     0  0
 20 22  2  0     0  0
 22 23  1  0     0  0
 23 24  1  0     0  0
 24 25  1  0     0  0
 25 26  2  0     0  0
 25 27  1  0     0  0
 21 28  2  0     0  0
 28 29  1  0     0  0
 29 30  1  0     0  0
 30 31  2  0     0  0
 21 31  1  0     0  0
 32 33  1  0     0  0
 33 24  1  0     0  0
 24 32  1  0     0  0
 30 34  1  0     0  0
M  END
