 
 
 
 21 24  0  0  0  0  0  0  0  0999 V2000
   13.1600  -15.6800    0.0000 C   0  0  0  0  0  0  0  0  0  0  0  0
   13.1600  -17.0800    0.0000 N   0  0  0  0  0  0  0  0  0  0  0  0
   14.3724  -17.7800    0.0000 C   0  0  0  0  0  0  0  0  0  0  0  0
   15.5849  -17.0800    0.0000 C   0  0  0  0  0  0  0  0  0  0  0  0
   15.5849  -15.6800    0.0000 C   0  0  0  0  0  0  0  0  0  0  0  0
   14.3724  -14.9800    0.0000 C   0  0  0  0  0  0  0  0  0  0  0  0
   16.7973  -17.7800    0.0000 C   0  0  0  0  0  0  0  0  0  0  0  0
   18.0097  -17.0800    0.0000 C   0  0  0  0  0  0  0  0  0  0  0  0
   18.0097  -15.6800    0.0000 C   0  0  0  0  0  0  0  0  0  0  0  0
   16.7973  -14.9800    0.0000 C   0  0  0  0  0  0  0  0  0  0  0  0
   16.7973  -13.5800    0.0000 N   0  0  0  0  0  0  0  0  0  0  0  0
   19.2073  -14.9885    0.0000 F  -1  0  0  0  0  0  0  0  0  0  0  0
   11.9476  -14.9800    0.0000 N   0  0  0  0  0  0  0  0  0  0  0  0
   11.8015  -13.5902    0.0000 C   0  0  0  0  0  0  0  0  0  0  0  0
   10.4346  -13.2996    0.0000 C   0  0  0  0  0  0  0  0  0  0  0  0
    9.7358  -14.5098    0.0000 C   0  0  0  0  0  0  0  0  0  0  0  0
   10.6709  -15.5484    0.0000 C   0  0  0  0  0  0  0  0  0  0  0  0
    8.3664  -14.8009    0.0000 C   0  0  0  0  0  0  0  0  0  0  0  0
    7.9337  -16.1323    0.0000 C   0  0  0  0  0  0  0  0  0  0  0  0
    8.8688  -17.1709    0.0000 N   0  0  0  0  0  0  0  0  0  0  0  0
   10.2382  -16.8798    0.0000 C   0  0  0  0  0  0  0  0  0  0  0  0
  1  2  1  0     0  0
  2  3  2  0     0  0
  3  4  1  0     0  0
  4  5  2  0     0  0
  5  6  1  0     0  0
  1  6  2  0     0  0
  4  7  1  0     0  0
  7  8  2  0     0  0
  8  9  1  0     0  0
  9 10  2  0     0  0
  5 10  1  0     0  0
 10 11  1  0     0  0
  9 12  1  0     0  0
  1 13  1  0     0  0
 13 14  1  0     0  0
 14 15  1  0     0  0
 15 16  1  0     0  0
 16 17  1  0     0  0
 13 17  1  0     0  0
 16 18  2  0     0  0
 18 19  1  0     0  0
 19 20  2  0     0  0
 20 21  1  0     0  0
 17 21  2  0     0  0
M  ISO  1  12  18
M  END
