 
 
 
 39 43  0  0  0  0  0  0  0  0999 V2000
   23.4500  -17.7800    0.0000 C   0  0  0  0  0  0  0  0  0  0  0  0
   23.4500  -19.1800    0.0000 C   0  0  0  0  0  0  0  0  0  0  0  0
   22.2600  -19.8800    0.0000 C   0  0  0  0  0  0  0  0  0  0  0  0
   21.0000  -19.1800    0.0000 C   0  0  0  0  0  0  0  0  0  0  0  0
   21.0000  -17.7800    0.0000 C   0  0  0  0  0  0  0  0  0  0  0  0
   22.2600  -17.0800    0.0000 C   0  0  0  0  0  0  0  0  0  0  0  0
   19.8100  -19.8800    0.0000 N   0  0  0  0  0  0  0  0  0  0  0  0
   18.6200  -19.1800    0.0000 C   0  0  0  0  0  0  0  0  0  0  0  0
   17.4300  -19.8800    0.0000 C   0  0  0  0  0  0  0  0  0  0  0  0
   18.6200  -17.7800    0.0000 O   0  0  0  0  0  0  0  0  0  0  0  0
   17.4300  -21.2800    0.0000 C   0  0  0  0  0  0  0  0  0  0  0  0
   16.1700  -21.9800    0.0000 C   0  0  0  0  0  0  0  0  0  0  0  0
   14.9800  -21.2800    0.0000 C   0  0  0  0  0  0  0  0  0  0  0  0
   14.9800  -19.8800    0.0000 C   0  0  0  0  0  0  0  0  0  0  0  0
   16.1700  -19.1800    0.0000 C   0  0  0  0  0  0  0  0  0  0  0  0
   13.7900  -21.9800    0.0000 C   0  0  0  0  0  0  0  0  0  0  0  0
   13.7900  -19.1800    0.0000 C   0  0  0  0  0  0  0  0  0  0  0  0
   12.5300  -18.4800    0.0000 C   0  0  0  0  0  0  0  0  0  0  0  0
   11.3400  -17.7800    0.0000 C   0  0  0  0  0  0  0  0  0  0  0  0
   10.1500  -18.4800    0.0000 C   0  0  0  0  0  0  0  0  0  0  0  0
    8.8900  -17.7800    0.0000 C   0  0  0  0  0  0  0  0  0  0  0  0
    8.8900  -16.3800    0.0000 C   0  0  0  0  0  0  0  0  0  0  0  0
   10.1500  -15.6800    0.0000 N   0  0  0  0  0  0  0  0  0  0  0  0
   11.3400  -16.3800    0.0000 C   0  0  0  0  0  0  0  0  0  0  0  0
    7.5600  -18.2000    0.0000 C   0  0  0  0  0  0  0  0  0  0  0  0
    6.7900  -17.0800    0.0000 N   0  0  0  0  0  0  0  0  0  0  0  0
    7.5600  -15.9600    0.0000 N   0  0  0  0  0  0  0  0  0  0  0  0
   22.2772  -15.6801    0.0000 C   0  0  0  0  0  0  0  0  0  0  0  0
   22.2772  -14.2801    0.0000 F   0  0  0  0  0  0  0  0  0  0  0  0
   20.8772  -15.6801    0.0000 F   0  0  0  0  0  0  0  0  0  0  0  0
   23.6772  -15.6801    0.0000 F   0  0  0  0  0  0  0  0  0  0  0  0
   24.6653  -17.0849    0.0000 C   0  0  0  0  0  0  0  0  0  0  0  0
   25.8537  -17.7777    0.0000 N   0  0  0  0  0  0  0  0  0  0  0  0
   25.8479  -19.1799    0.0000 C   0  0  0  0  0  0  0  0  0  0  0  0
   27.0575  -19.8849    0.0000 C   0  0  0  0  0  0  0  0  0  0  0  0
   28.2728  -19.1899    0.0000 N   0  0  0  0  0  0  0  0  0  0  0  0
   28.2786  -17.7878    0.0000 C   0  0  0  0  0  0  0  0  0  0  0  0
   27.0691  -17.0827    0.0000 C   0  0  0  0  0  0  0  0  0  0  0  0
   29.4833  -19.8955    0.0000 C   0  0  0  0  0  0  0  0  0  0  0  0
  1  2  2  0     0  0
  2  3  1  0     0  0
  3  4  2  0     0  0
  4  5  1  0     0  0
  5  6  2  0     0  0
  1  6  1  0     0  0
  4  7  1  0     0  0
  7  8  1  0     0  0
  8  9  1  0     0  0
  8 10  2  0     0  0
  9 11  2  0     0  0
 11 12  1  0     0  0
 12 13  2  0     0  0
 13 14  1  0     0  0
 14 15  2  0     0  0
  9 15  1  0     0  0
 13 16  1  0     0  0
 14 17  1  0     0  0
 17 18  3  0     0  0
 18 19  1  0     0  0
 19 20  2  0     0  0
 20 21  1  0     0  0
 21 22  2  0     0  0
 22 23  1  0     0  0
 23 24  2  0     0  0
 19 24  1  0     0  0
 21 25  1  0     0  0
 25 26  2  0     0  0
 26 27  1  0     0  0
 22 27  1  0     0  0
  6 28  1  0     0  0
 28 29  1  0     0  0
 28 30  1  0     0  0
 28 31  1  0     0  0
  1 32  1  0     0  0
 32 33  1  0     0  0
 33 34  1  0     0  0
 34 35  1  0     0  0
 35 36  1  0     0  0
 36 37  1  0     0  0
 37 38  1  0     0  0
 33 38  1  0     0  0
 36 39  1  0     0  0
M  END
