9811635
     RDKit          2D

 64 69  0  0  1  0  0  0  0  0999 V2000
    9.5015    2.6084    0.0000 Cl  0  0  0  0  0  0  0  0  0  0  0  0
    6.0319    4.9745    0.0000 O   0  0  0  0  0  0  0  0  0  0  0  0
    2.7950    4.2182    0.0000 O   0  0  0  0  0  0  0  0  0  0  0  0
    7.9204    3.3157    0.0000 O   0  0  0  0  0  0  0  0  0  0  0  0
    7.7423    5.0386    0.0000 O   0  0  0  0  0  0  0  0  0  0  0  0
    5.4996    6.6227    0.0000 O   0  0  0  0  0  0  0  0  0  0  0  0
    0.0000    0.6658    0.0000 O   0  0  0  0  0  0  0  0  0  0  0  0
    7.1931    6.2596    0.0000 O   0  0  0  0  0  0  0  0  0  0  0  0
    6.0498   12.7734    0.0000 O   0  0  0  0  0  0  0  0  0  0  0  0
    4.3177   15.7734    0.0000 O   0  0  0  0  0  0  0  0  0  0  0  0
    4.3177   13.7734    0.0000 O   0  0  0  0  0  0  0  0  0  0  0  0
    4.3177   12.7734    0.0000 O   0  0  0  0  0  0  0  0  0  0  0  0
    4.3177   17.5055    0.0000 O   0  0  0  0  0  0  0  0  0  0  0  0
    6.0498   10.7734    0.0000 O   0  0  0  0  0  0  0  0  0  0  0  0
    2.5857   10.7734    0.0000 O   0  0  0  0  0  0  0  0  0  0  0  0
    2.3177   19.2375    0.0000 O   0  0  0  0  0  0  0  0  0  0  0  0
    1.7196   12.2734    0.0000 O   0  0  0  0  0  0  0  0  0  0  0  0
    7.7818   13.7734    0.0000 N   0  0  0  0  0  0  0  0  0  0  0  0
    6.5498   16.6395    0.0000 N   0  0  0  0  0  0  0  0  0  0  0  0
    2.3177   15.7734    0.0000 N   0  0  0  0  0  0  0  0  0  0  0  0
    4.3177    9.7734    0.0000 N   0  0  0  0  0  0  0  0  0  0  0  0
    3.8177   20.1036    0.0000 N   0  0  0  0  0  0  0  0  0  0  0  0
    5.3931    3.7182    0.0000 C   0  0  0  0  0  0  0  0  0  0  0  0
    5.3931    2.7182    0.0000 C   0  0  0  0  0  0  0  0  0  0  0  0
    4.5271    2.2182    0.0000 C   0  0  0  0  0  0  0  0  0  0  0  0
    3.6610    2.7182    0.0000 C   0  0  0  0  0  0  0  0  0  0  0  0
    6.3393    4.0229    0.0000 C   0  0  0  0  0  0  0  0  0  0  0  0
    4.5271    4.2182    0.0000 C   0  0  0  0  0  0  0  0  0  0  0  0
    6.3393    2.4134    0.0000 C   0  0  0  0  0  0  0  0  0  0  0  0
    3.6610    3.7182    0.0000 C   0  0  0  0  0  0  0  0  0  0  0  0
    2.7510    2.2113    0.0000 C   0  0  0  0  0  0  0  0  0  0  0  0
    6.9229    3.2182    0.0000 C   0  0  0  0  0  0  0  0  0  0  0  0
    4.5431    1.1767    0.0000 C   0  0  0  0  0  0  0  0  0  0  0  0
    5.3931    4.7182    0.0000 C   0  0  0  0  0  0  0  0  0  0  0  0
    3.6451    0.6489    0.0000 C   0  0  0  0  0  0  0  0  0  0  0  0
    2.7430    1.1697    0.0000 C   0  0  0  0  0  0  0  0  0  0  0  0
    7.3340    4.1257    0.0000 C   0  0  0  0  0  0  0  0  0  0  0  0
    2.7587    3.2113    0.0000 C   0  0  0  0  0  0  0  0  0  0  0  0
    1.8242    2.7754    0.0000 C   0  0  0  0  0  0  0  0  0  0  0  0
    1.8076    0.6200    0.0000 C   0  0  0  0  0  0  0  0  0  0  0  0
    0.8763    2.2475    0.0000 C   0  0  0  0  0  0  0  0  0  0  0  0
    0.8679    1.1625    0.0000 C   0  0  0  0  0  0  0  0  0  0  0  0
    6.2415    5.9523    0.0000 C   0  0  0  0  0  0  0  0  0  0  0  0
    8.9151    3.4185    0.0000 C   0  0  0  0  0  0  0  0  0  0  0  0
    4.5480    6.3153    0.0000 C   0  0  0  0  0  0  0  0  0  0  0  0
    3.8060    6.9857    0.0000 C   0  0  0  0  0  0  0  0  0  0  0  0
    6.0498   13.7734    0.0000 C   0  0  0  0  0  0  0  0  0  0  0  0
    5.1838   15.2734    0.0000 C   0  0  0  0  0  0  0  0  0  0  0  0
    5.1838   14.2734    0.0000 C   0  0  0  0  0  0  0  0  0  0  0  0
    6.9158   14.2734    0.0000 C   0  0  0  0  0  0  0  0  0  0  0  0
    6.0498   15.7734    0.0000 C   0  0  0  0  0  0  0  0  0  0  0  0
    6.9158   15.2734    0.0000 C   0  0  0  0  0  0  0  0  0  0  0  0
    5.1838   12.2734    0.0000 C   0  0  0  0  0  0  0  0  0  0  0  0
    3.8177   16.6395    0.0000 C   0  0  0  0  0  0  0  0  0  0  0  0
    5.1838   11.2734    0.0000 C   0  0  0  0  0  0  0  0  0  0  0  0
    2.8177   16.6395    0.0000 C   0  0  0  0  0  0  0  0  0  0  0  0
    4.3177   10.7734    0.0000 C   0  0  0  0  0  0  0  0  0  0  0  0
    3.4517   11.2734    0.0000 C   0  0  0  0  0  0  0  0  0  0  0  0
    2.3177   17.5055    0.0000 C   0  0  0  0  0  0  0  0  0  0  0  0
    3.4517   12.2734    0.0000 C   0  0  0  0  0  0  0  0  0  0  0  0
    3.8177   18.3715    0.0000 C   0  0  0  0  0  0  0  0  0  0  0  0
    2.8177   18.3715    0.0000 C   0  0  0  0  0  0  0  0  0  0  0  0
    2.5857   12.7734    0.0000 C   0  0  0  0  0  0  0  0  0  0  0  0
    4.3177   19.2375    0.0000 C   0  0  0  0  0  0  0  0  0  0  0  0
  1 44  1  0
 27  2  1  6
  2 43  1  0
 30  3  1  1
  4 37  1  0
  4 44  1  0
  5 37  2  0
  6 43  1  0
  6 45  1  0
  7 42  2  0
  8 43  2  0
 47  9  1  6
 53  9  1  6
 48 10  1  6
 54 10  1  6
 49 11  1  1
 12 53  1  0
 12 60  1  0
 13 54  1  0
 13 61  1  0
 55 14  1  6
 58 15  1  6
 62 16  1  6
 17 63  1  0
 50 18  1  1
 51 19  1  1
 56 20  1  6
 57 21  1  1
 22 64  1  0
 23 24  1  0
 23 27  1  0
 23 28  1  0
 23 34  1  1
 24 25  1  0
 24 29  1  1
 25 26  1  0
 25 33  1  6
 26 30  1  1
 26 31  1  0
 27 32  1  0
 27 37  1  0
 28 30  1  0
 29 32  1  0
 31 36  1  0
 31 38  1  1
 31 39  1  0
 33 35  1  0
 35 36  1  0
 36 40  2  0
 39 41  2  0
 40 42  1  0
 41 42  1  0
 45 46  1  0
 47 49  1  0
 47 50  1  0
 48 49  1  0
 48 51  1  0
 50 52  1  0
 51 52  1  0
 53 55  1  0
 54 56  1  0
 55 57  1  0
 56 59  1  0
 57 58  1  0
 58 60  1  0
 59 62  1  0
 60 63  1  1
 61 62  1  0
 61 64  1  1
M  END
