 
 
 
 14 15  0  0  0  0  0  0  0  0999 V2000
    9.3800  -16.2400    0.0000 C   0  0  0  0  0  0  0  0  0  0  0  0
    9.3800  -14.8400    0.0000 C   0  0  0  0  0  0  0  0  0  0  0  0
   10.5700  -14.1400    0.0000 C   0  0  0  0  0  0  0  0  0  0  0  0
   11.8300  -14.8400    0.0000 C   0  0  0  0  0  0  0  0  0  0  0  0
   11.8300  -16.2400    0.0000 C   0  0  0  0  0  0  0  0  0  0  0  0
   10.5700  -16.9400    0.0000 N   0  0  0  0  0  0  0  0  0  0  0  0
   10.9200  -15.6100    0.0000 C   0  0  0  0  0  0  0  0  0  0  0  0
   10.2200  -15.4700    0.0000 C   0  0  0  0  0  0  0  0  0  0  0  0
   13.0200  -16.9400    0.0000 C   0  0  0  0  0  0  0  0  0  0  0  0
   14.2100  -16.2400    0.0000 O   0  0  0  0  0  0  0  0  0  0  0  0
   15.4000  -16.9400    0.0000 C   0  0  0  0  0  0  0  0  0  0  0  0
   11.8300  -17.6400    0.0000 C   0  0  0  0  0  0  0  0  0  0  0  0
   13.0200  -18.3400    0.0000 O   0  0  0  0  0  0  0  0  0  0  0  0
   13.0200  -14.1400    0.0000 O   0  0  0  0  0  0  0  0  0  0  0  0
  1  2  1  0     0  0
  2  3  1  0     0  0
  3  4  1  0     0  0
  4  5  1  0     0  0
  5  6  1  0     0  0
  1  6  1  0     0  0
  6  7  1  0     0  0
  3  8  1  0     0  0
  8  7  1  0     0  0
  5  9  1  0     0  0
  9 10  1  0     0  0
 10 11  1  0     0  0
  5 12  1  0     0  0
 12 13  1  0     0  0
  4 14  2  0     0  0
M  END
