 
 
 
 38 40  0  0  1  0  0  0  0  0999 V2000
   16.0300  -27.7200    0.0000 N   0  0  0  0  0  0  0  0  0  0  0  0
   17.2200  -27.0200    0.0000 C   0  0  0  0  0  0  0  0  0  0  0  0
   18.4800  -27.7200    0.0000 C   0  0  0  0  0  0  0  0  0  0  0  0
   19.6700  -27.0200    0.0000 N   0  0  0  0  0  0  0  0  0  0  0  0
   18.4800  -29.1200    0.0000 O   0  0  0  0  0  0  0  0  0  0  0  0
   17.2200  -25.6200    0.0000 C   0  0  0  0  0  0  0  0  0  0  0  0
   18.4800  -24.9200    0.0000 C   0  0  0  0  0  0  0  0  0  0  0  0
   19.6700  -25.6200    0.0000 C   0  0  0  0  0  0  0  0  0  0  0  0
   18.4800  -23.5200    0.0000 C   0  0  0  0  0  0  0  0  0  0  0  0
   16.0300  -29.1200    0.0000 C   0  0  0  0  0  0  0  0  0  0  0  0
   14.8400  -29.8200    0.0000 C   0  0  0  0  0  0  0  0  0  0  0  0
   17.2200  -29.8200    0.0000 O   0  0  0  0  0  0  0  0  0  0  0  0
   14.7000  -31.1500    0.0000 C   0  0  0  0  0  0  0  0  0  0  0  0
   13.3700  -31.4300    0.0000 C   0  0  0  0  0  0  0  0  0  0  0  0
   12.6700  -30.2400    0.0000 C   0  0  0  0  0  0  0  0  0  0  0  0
   13.5800  -29.2600    0.0000 N   0  0  0  0  0  0  0  0  0  0  0  0
   12.7400  -32.6900    0.0000 C   0  0  0  0  0  0  0  0  0  0  0  0
   11.2700  -32.6900    0.0000 C   0  0  0  0  0  0  0  0  0  0  0  0
   10.5700  -31.4300    0.0000 C   0  0  0  0  0  0  0  0  0  0  0  0
   11.2700  -30.2400    0.0000 C   0  0  0  0  0  0  0  0  0  0  0  0
   13.3000  -33.8800    0.0000 O   0  0  0  0  0  0  0  0  0  0  0  0
   14.7700  -33.8800    0.0000 C   0  0  0  0  0  0  0  0  0  0  0  0
   20.8600  -27.7200    0.0000 C   0  0  0  0  0  0  0  0  0  0  0  0
   20.8600  -29.1200    0.0000 C   0  0  0  0  0  0  0  0  0  0  0  0
   22.1200  -27.0200    0.0000 C   0  0  0  0  0  0  0  0  0  0  0  0
   23.3100  -27.7200    0.0000 C   0  0  0  0  0  0  0  0  0  0  0  0
   23.8000  -29.0500    0.0000 C   0  0  0  0  0  0  0  0  0  0  0  0
   25.1300  -29.0500    0.0000 N   0  0  0  0  0  0  0  0  0  0  0  0
   25.5500  -27.7200    0.0000 C   0  0  0  0  0  0  0  0  0  0  0  0
   24.4300  -26.8800    0.0000 C   0  0  0  0  0  0  0  0  0  0  0  0
   22.9600  -30.1700    0.0000 O   0  0  0  0  0  0  0  0  0  0  0  0
   22.0500  -29.8200    0.0000 O   0  0  0  0  0  0  0  0  0  0  0  0
   19.6700  -29.8200    0.0000 C   0  0  0  0  0  0  0  0  0  0  0  0
   19.6700  -31.2200    0.0000 O   0  0  0  0  0  0  0  0  0  0  0  0
   18.4800  -31.9200    0.0000 P   0  0  0  0  0  0  0  0  0  0  0  0
   17.2200  -32.6200    0.0000 O   0  0  0  0  0  0  0  0  0  0  0  0
   17.7800  -30.7300    0.0000 O   0  0  0  0  0  0  0  0  0  0  0  0
   19.1800  -33.1100    0.0000 O   0  0  0  0  0  0  0  0  0  0  0  0
  1  2  1  0     0  0
  2  3  1  0     0  0
  3  4  1  0     0  0
  3  5  2  0     0  0
  2  6  1  1     0  0
  6  7  1  0     0  0
  7  8  1  0     0  0
  7  9  1  0     0  0
  1 10  1  0     0  0
 10 11  1  0     0  0
 10 12  2  0     0  0
 11 13  2  0     0  0
 13 14  1  0     0  0
 14 15  1  0     0  0
 15 16  1  0     0  0
 11 16  1  0     0  0
 14 17  2  0     0  0
 17 18  1  0     0  0
 18 19  2  0     0  0
 19 20  1  0     0  0
 15 20  2  0     0  0
 17 21  1  0     0  0
 21 22  1  0     0  0
 23  4  1  1     0  0
 23 24  1  0     0  0
 23 25  1  0     0  0
 26 25  1  6     0  0
 26 27  1  0     0  0
 27 28  1  0     0  0
 28 29  1  0     0  0
 29 30  1  0     0  0
 26 30  1  0     0  0
 27 31  2  0     0  0
 24 32  2  0     0  0
 24 33  1  0     0  0
 33 34  1  0     0  0
 34 35  1  0     0  0
 35 36  2  0     0  0
 35 37  1  0     0  0
 35 38  1  0     0  0
M  END
