 
 
 
 23 26  0  0  0  0  0  0  0  0999 V2000
   17.7389  -18.2297    0.0000 C   0  0  0  0  0  0  0  0  0  0  0  0
   17.7389  -19.6320    0.0000 N   0  0  0  0  0  0  0  0  0  0  0  0
   19.0010  -20.3332    0.0000 C   0  0  0  0  0  0  0  0  0  0  0  0
   20.1929  -19.6320    0.0000 N   0  0  0  0  0  0  0  0  0  0  0  0
   20.1929  -18.2297    0.0000 C   0  0  0  0  0  0  0  0  0  0  0  0
   19.0010  -17.5286    0.0000 C   0  0  0  0  0  0  0  0  0  0  0  0
   21.4550  -17.5286    0.0000 N   0  0  0  0  0  0  0  0  0  0  0  0
   22.6469  -18.2297    0.0000 C   0  0  0  0  0  0  0  0  0  0  0  0
   23.8389  -17.5286    0.0000 C   0  0  0  0  0  0  0  0  0  0  0  0
   23.8389  -16.1263    0.0000 O   0  0  0  0  0  0  0  0  0  0  0  0
   22.6469  -15.4251    0.0000 C   0  0  0  0  0  0  0  0  0  0  0  0
   21.4550  -16.1263    0.0000 C   0  0  0  0  0  0  0  0  0  0  0  0
   16.5470  -17.5286    0.0000 N   0  0  0  0  0  0  0  0  0  0  0  0
   16.5470  -16.1263    0.0000 C   0  0  0  0  0  0  0  0  0  0  0  0
   15.2148  -15.7056    0.0000 C   0  0  0  0  0  0  0  0  0  0  0  0
   14.3734  -16.8274    0.0000 C   0  0  0  0  0  0  0  0  0  0  0  0
   15.2148  -17.9493    0.0000 N   0  0  0  0  0  0  0  0  0  0  0  0
   14.7941  -14.3734    0.0000 N   0  0  0  0  0  0  0  0  0  0  0  0
   15.6355  -13.2516    0.0000 C   0  0  0  0  0  0  0  0  0  0  0  0
   14.8642  -12.1297    0.0000 C   0  0  0  0  0  0  0  0  0  0  0  0
   13.5320  -12.5504    0.0000 N   0  0  0  0  0  0  0  0  0  0  0  0
   13.4619  -13.9527    0.0000 N   0  0  0  0  0  0  0  0  0  0  0  0
   17.6707  -15.3026    0.0000 O   0  0  0  0  0  0  0  0  0  0  0  0
  1  2  2  0     0  0
  2  3  1  0     0  0
  3  4  2  0     0  0
  4  5  1  0     0  0
  5  6  2  0     0  0
  1  6  1  0     0  0
  5  7  1  0     0  0
  7  8  1  0     0  0
  8  9  1  0     0  0
  9 10  1  0     0  0
 10 11  1  0     0  0
 11 12  1  0     0  0
  7 12  1  0     0  0
  1 13  1  0     0  0
 13 14  1  0     0  0
 14 15  2  0     0  0
 15 16  1  0     0  0
 16 17  2  0     0  0
 13 17  1  0     0  0
 15 18  1  0     0  0
 18 19  1  0     0  0
 20 21  1  0     0  0
 21 22  2  0     0  0
 18 22  1  0     0  0
 19 20  2  0     0  0
 14 23  1  0     0  0
M  END
