 
     RDKit          2D

 89 94  0  0  0  0  0  0  0  0999 V2000
   24.1512  -19.0928    0.0000 N   0  0  0  0  0  0  0  0  0  0  0  0
   25.3914  -19.7915    0.0000 C   0  0  0  0  0  0  0  0  0  0  0  0
   22.9575  -19.7915    0.0000 C   0  0  0  0  0  0  0  0  0  0  0  0
   24.1512  -17.6779    0.0000 C   0  0  0  0  0  0  0  0  0  0  0  0
   25.3914  -21.1947    0.0000 C   0  0  0  0  0  0  0  0  0  0  0  0
   26.5851  -19.0928    0.0000 C   0  0  0  0  0  0  0  0  0  0  0  0
   22.9575  -21.1947    0.0000 C   0  0  0  0  0  0  0  0  0  0  0  0
   21.7580  -19.0928    0.0000 C   0  0  0  0  0  0  0  0  0  0  0  0
   25.3565  -16.9850    0.0000 C   0  0  0  0  0  0  0  0  0  0  0  0
   24.1512  -21.8934    0.0000 S   0  0  0  0  0  0  0  0  0  0  0  0
   26.5851  -21.8934    0.0000 C   0  0  0  0  0  0  0  0  0  0  0  0
   27.7904  -19.7915    0.0000 C   0  0  0  0  0  0  0  0  0  0  0  0
   21.7580  -21.8934    0.0000 C   0  0  0  0  0  0  0  0  0  0  0  0
   20.5179  -19.7915    0.0000 C   0  0  0  0  0  0  0  0  0  0  0  0
   25.3565  -15.6691    0.0000 N   0  0  0  0  0  0  0  0  0  0  0  0
   26.5442  -17.6779    0.0000 C   0  0  0  0  0  0  0  0  0  0  0  0
   27.7904  -21.1947    0.0000 C   0  0  0  0  0  0  0  0  0  0  0  0
   20.5179  -21.1947    0.0000 C   0  0  0  0  0  0  0  0  0  0  0  0
   24.0173  -14.8947    0.0000 C   0  0  0  0  0  0  0  0  0  0  0  0
   26.4919  -14.9296    0.0000 C   0  0  0  0  0  0  0  0  0  0  0  0
   30.1777  -19.5178    0.0000 Cl  0  0  0  0  0  0  0  0  0  0  0  0
   25.9001  -19.1101    0.0000 Cl  0  0  0  0  0  0  0  0  0  0  0  0
   18.0600  -16.7300    0.0000 C   0  0  0  0  0  0  0  0  0  0  0  0
   18.0600  -18.1300    0.0000 C   0  0  0  0  0  0  0  0  0  0  0  0
   19.2500  -18.8300    0.0000 C   0  0  0  0  0  0  0  0  0  0  0  0
   20.4400  -18.1300    0.0000 C   0  0  0  0  0  0  0  0  0  0  0  0
   20.4400  -16.7300    0.0000 C   0  0  0  0  0  0  0  0  0  0  0  0
   19.2500  -16.0300    0.0000 C   0  0  0  0  0  0  0  0  0  0  0  0
   16.8000  -16.0300    0.0000 O   0  0  0  0  0  0  0  0  0  0  0  0
   21.7000  -16.0300    0.0000 C   0  0  0  0  0  0  0  0  0  0  0  0
   22.8900  -16.7300    0.0000 C   0  0  0  0  0  0  0  0  0  0  0  0
   21.7000  -14.6300    0.0000 O   0  0  0  0  0  0  0  0  0  0  0  0
   24.0800  -16.0300    0.0000 N   0  0  0  0  0  0  0  0  0  0  0  0
   25.2700  -16.7300    0.0000 C   0  0  0  0  0  0  0  0  0  0  0  0
   29.5066  -18.6348    0.0000 O   0  0  0  0  0  0  0  0  0  0  0  0
   18.0622  -16.8904    0.0000 C   0  0  0  0  0  0  0  0  0  0  0  0
   18.0622  -15.5648    0.0000 C   0  0  0  0  0  0  0  0  0  0  0  0
   19.2482  -17.5881    0.0000 C   0  0  0  0  0  0  0  0  0  0  0  0
   16.9458  -17.5183    0.0000 C   0  0  0  0  0  0  0  0  0  0  0  0
   19.2482  -16.2625    0.0000 C   0  0  0  0  0  0  0  0  0  0  0  0
   16.9458  -14.9368    0.0000 C   0  0  0  0  0  0  0  0  0  0  0  0
   19.2482  -14.9368    0.0000 C   0  0  0  0  0  0  0  0  0  0  0  0
   20.3645  -16.8904    0.0000 C   0  0  0  0  0  0  0  0  0  0  0  0
   19.2482  -18.8439    0.0000 C   0  0  0  0  0  0  0  0  0  0  0  0
   15.6202  -16.1927    0.0000 O   0  0  0  0  0  0  0  0  0  0  0  0
   16.9458  -18.8439    0.0000 C   0  0  0  0  0  0  0  0  0  0  0  0
   21.4808  -16.2625    0.0000 C   0  0  0  0  0  0  0  0  0  0  0  0
   16.9458  -13.6112    0.0000 C   0  0  0  0  0  0  0  0  0  0  0  0
   20.3645  -15.6345    0.0000 C   0  0  0  0  0  0  0  0  0  0  0  0
   19.2482  -13.6112    0.0000 C   0  0  0  0  0  0  0  0  0  0  0  0
   21.4808  -17.5881    0.0000 N   0  0  0  0  0  0  0  0  0  0  0  0
   18.0622  -19.5416    0.0000 C   0  0  0  0  0  0  0  0  0  0  0  0
   15.8295  -19.5416    0.0000 O   0  0  0  0  0  0  0  0  0  0  0  0
   18.1319  -12.9833    0.0000 C   0  0  0  0  0  0  0  0  0  0  0  0
   15.8295  -12.9833    0.0000 O   0  0  0  0  0  0  0  0  0  0  0  0
   14.6435  -13.6112    0.0000 C   0  0  0  0  0  0  0  0  0  0  0  0
   22.8808  -17.5881    0.0000 C   0  0  0  0  0  0  0  0  0  0  0  0
   28.5285  -14.7289    0.0000 P   0  0  0  0  0  0  0  0  0  0  0  0
   28.5285  -13.3335    0.0000 O   0  0  0  0  0  0  0  0  0  0  0  0
   28.5285  -16.1243    0.0000 O   0  0  0  0  0  0  0  0  0  0  0  0
   29.9238  -14.7289    0.0000 O   0  0  0  0  0  0  0  0  0  0  0  0
   27.1331  -14.7289    0.0000 O   0  0  0  0  0  0  0  0  0  0  0  0
   18.0622  -16.8904    0.0000 C   0  0  0  0  0  0  0  0  0  0  0  0
   18.0622  -15.5648    0.0000 C   0  0  0  0  0  0  0  0  0  0  0  0
   16.9458  -14.9368    0.0000 C   0  0  0  0  0  0  0  0  0  0  0  0
   16.9458  -13.6112    0.0000 C   0  0  0  0  0  0  0  0  0  0  0  0
   18.1319  -12.9833    0.0000 C   0  0  0  0  0  0  0  0  0  0  0  0
   19.2482  -13.6112    0.0000 C   0  0  0  0  0  0  0  0  0  0  0  0
   19.2482  -14.9368    0.0000 C   0  0  0  0  0  0  0  0  0  0  0  0
   20.3645  -15.6345    0.0000 C   0  0  0  0  0  0  0  0  0  0  0  0
   20.3645  -16.8904    0.0000 C   0  0  0  0  0  0  0  0  0  0  0  0
   19.2482  -17.5881    0.0000 C   0  0  0  0  0  0  0  0  0  0  0  0
   19.2482  -18.8439    0.0000 C   0  0  0  0  0  0  0  0  0  0  0  0
   18.0622  -19.5416    0.0000 C   0  0  0  0  0  0  0  0  0  0  0  0
   16.9458  -18.8439    0.0000 C   0  0  0  0  0  0  0  0  0  0  0  0
   16.9458  -17.5183    0.0000 C   0  0  0  0  0  0  0  0  0  0  0  0
   15.6202  -16.1927    0.0000 O   0  0  0  0  0  0  0  0  0  0  0  0
   15.8295  -19.5416    0.0000 O   0  0  0  0  0  0  0  0  0  0  0  0
   21.4808  -17.5881    0.0000 N   0  0  0  0  0  0  0  0  0  0  0  0
   21.4808  -16.2625    0.0000 C   0  0  0  0  0  0  0  0  0  0  0  0
   19.2482  -16.2625    0.0000 C   0  0  0  0  0  0  0  0  0  0  0  0
   22.8808  -17.5881    0.0000 C   0  0  0  0  0  0  0  0  0  0  0  0
   15.8295  -12.9833    0.0000 O   0  0  0  0  0  0  0  0  0  0  0  0
   14.6435  -13.6112    0.0000 C   0  0  0  0  0  0  0  0  0  0  0  0
   28.5285  -14.7289    0.0000 P   0  0  0  0  0  0  0  0  0  0  0  0
   28.5285  -13.3335    0.0000 O   0  0  0  0  0  0  0  0  0  0  0  0
   28.5285  -16.1243    0.0000 O   0  0  0  0  0  0  0  0  0  0  0  0
   29.9238  -14.7289    0.0000 O   0  0  0  0  0  0  0  0  0  0  0  0
   27.1331  -14.7289    0.0000 O   0  0  0  0  0  0  0  0  0  0  0  0
  1  2  1  0
  1  3  1  0
  1  4  1  0
  2  5  2  0
  2  6  1  0
  3  7  2  0
  3  8  1  0
  4  9  1  0
  5 10  1  0
  5 11  1  0
  6 12  2  0
  7 13  1  0
  8 14  2  0
  9 15  1  0
  9 16  1  0
 11 17  2  0
 13 18  2  0
 15 19  1  0
 15 20  1  0
  7 10  1  0
 12 17  1  0
 14 18  1  0
 23 24  2  0
 24 25  1  0
 25 26  2  0
 26 27  1  0
 27 28  2  0
 23 28  1  0
 23 29  1  0
 27 30  1  0
 30 31  1  0
 30 32  1  1
 31 33  1  0
 33 34  1  0
 36 37  1  0
 36 38  1  0
 36 39  1  0
 36 40  1  1
 37 41  2  0
 37 42  1  0
 38 43  1  0
 38 44  1  6
 39 45  1  6
 39 46  1  0
 40 47  1  0
 41 48  1  0
 42 49  1  0
 42 50  2  0
 43 51  1  0
 44 52  2  0
 46 53  1  6
 48 54  2  0
 48 55  1  0
 55 56  1  0
 41 45  1  0
 43 49  1  1
 46 52  1  0
 47 51  1  0
 50 54  1  0
 51 57  1  0
 63 64  1  0
 63 72  1  0
 63 76  1  0
 63 81  1  1
 64 65  1  0
 64 69  2  0
 72 71  1  0
 72 73  1  6
 76 77  1  6
 76 75  1  0
 81 80  1  0
 65 66  2  0
 69 70  1  0
 69 68  1  0
 71 79  1  0
 73 74  2  0
 75 78  1  6
 66 67  1  0
 66 83  1  0
 83 84  1  0
 65 77  1  0
 71 70  1  1
 75 74  1  0
 80 79  1  0
 68 67  2  0
 79 82  1  0
 58 59  2  0
 58 60  1  0
 58 61  1  0
 58 62  1  0
 85 86  2  0
 85 87  1  0
 85 88  1  0
 85 89  1  0
M  END
