 
 
 
 28 29  0  0  1  0  0  0  0  0999 V2000
   17.5700  -14.0000    0.0000 C   0  0  0  0  0  0  0  0  0  0  0  0
   17.5700  -15.4000    0.0000 C   0  0  0  0  0  0  0  0  0  0  0  0
   18.7600  -16.1000    0.0000 C   0  0  0  0  0  0  0  0  0  0  0  0
   20.0200  -15.4000    0.0000 C   0  0  0  0  0  0  0  0  0  0  0  0
   20.0200  -14.0000    0.0000 C   0  0  0  0  0  0  0  0  0  0  0  0
   18.7600  -13.3000    0.0000 C   0  0  0  0  0  0  0  0  0  0  0  0
   18.7600  -11.9000    0.0000 C   0  0  0  0  0  0  0  0  0  0  0  0
   21.2100  -13.3000    0.0000 F   0  0  0  0  0  0  0  0  0  0  0  0
   16.3800  -16.1000    0.0000 N   0  0  0  0  0  0  0  0  0  0  0  0
   15.1900  -15.4000    0.0000 C   0  0  0  0  0  0  0  0  0  0  0  0
   14.0000  -16.1000    0.0000 C   0  0  0  0  0  0  0  0  0  0  0  0
   15.1900  -14.0000    0.0000 O   0  0  0  0  0  0  0  0  0  0  0  0
   18.7600  -10.5000    0.0000 N   0  0  0  0  0  0  0  0  0  0  0  0
   12.6700  -15.7500    0.0000 N   0  0  0  0  0  0  0  0  0  0  0  0
   11.9000  -16.8700    0.0000 C   0  0  0  0  0  0  0  0  0  0  0  0
   12.7400  -17.9200    0.0000 C   0  0  0  0  0  0  0  0  0  0  0  0
   14.0000  -17.5000    0.0000 C   0  0  0  0  0  0  0  0  0  0  0  0
   12.1800  -14.4200    0.0000 C   0  0  0  0  0  0  0  0  0  0  0  0
   12.3900  -19.2500    0.0000 S   0  0  0  0  0  0  0  0  0  0  0  0
   10.9900  -18.9000    0.0000 O   0  0  0  0  0  0  0  0  0  0  0  0
   13.7200  -19.6000    0.0000 O   0  0  0  0  0  0  0  0  0  0  0  0
   11.9700  -20.6500    0.0000 N   0  0  0  0  0  0  0  0  0  0  0  0
    9.5900  -20.6500    0.0000 C   0  0  0  0  0  0  0  0  0  0  0  0
   10.7800  -21.3500    0.0000 C   0  0  0  0  0  0  0  0  0  0  0  0
   10.7800  -22.7500    0.0000 C   0  0  0  0  0  0  0  0  0  0  0  0
    8.3776  -19.9500    0.0000 F   0  0  0  0  0  0  0  0  0  0  0  0
    8.8900  -21.8624    0.0000 F   0  0  0  0  0  0  0  0  0  0  0  0
    9.5900  -19.2500    0.0000 F   0  0  0  0  0  0  0  0  0  0  0  0
  1  2  2  0     0  0
  2  3  1  0     0  0
  3  4  2  0     0  0
  4  5  1  0     0  0
  5  6  2  0     0  0
  1  6  1  0     0  0
  6  7  1  0     0  0
  5  8  1  0     0  0
  2  9  1  0     0  0
  9 10  1  0     0  0
 10 11  1  0     0  0
 10 12  2  0     0  0
  7 13  3  0     0  0
 11 14  1  0     0  0
 14 15  1  0     0  0
 15 16  2  0     0  0
 16 17  1  0     0  0
 11 17  2  0     0  0
 14 18  1  0     0  0
 16 19  1  0     0  0
 19 20  2  0     0  0
 19 21  2  0     0  0
 19 22  1  0     0  0
 23 24  1  0     0  0
 24 22  1  0     0  0
 24 25  1  1     0  0
 23 26  1  0     0  0
 23 27  1  0     0  0
 23 28  1  0     0  0
M  END
