 
 
 
 39 44  0  0  1  0  0  0  0  0999 V2000
   21.8175  -13.4224    0.0000 C   0  0  0  0  0  0  0  0  0  0  0  0
   21.8175  -14.8207    0.0000 C   0  0  0  0  0  0  0  0  0  0  0  0
   23.0284  -15.5198    0.0000 C   0  0  0  0  0  0  0  0  0  0  0  0
   24.2395  -14.8207    0.0000 C   0  0  0  0  0  0  0  0  0  0  0  0
   24.2395  -13.4224    0.0000 N   0  0  0  0  0  0  0  0  0  0  0  0
   23.0284  -12.7232    0.0000 C   0  0  0  0  0  0  0  0  0  0  0  0
   20.4876  -12.9903    0.0000 N   0  0  0  0  0  0  0  0  0  0  0  0
   19.6657  -14.1215    0.0000 C   0  0  0  0  0  0  0  0  0  0  0  0
   20.4876  -15.2527    0.0000 N   0  0  0  0  0  0  0  0  0  0  0  0
   18.2519  -14.1215    0.0000 C   0  0  0  0  0  0  0  0  0  0  0  0
   17.4300  -12.9903    0.0000 N   0  0  0  0  0  0  0  0  0  0  0  0
   16.1001  -13.4224    0.0000 N   0  0  0  0  0  0  0  0  0  0  0  0
   16.1001  -14.8207    0.0000 C   0  0  0  0  0  0  0  0  0  0  0  0
   17.4300  -15.2527    0.0000 C   0  0  0  0  0  0  0  0  0  0  0  0
   15.0610  -15.7563    0.0000 C   0  0  0  0  0  0  0  0  0  0  0  0
   15.3517  -17.1241    0.0000 C   0  0  0  0  0  0  0  0  0  0  0  0
   16.6816  -17.5561    0.0000 C   0  0  0  0  0  0  0  0  0  0  0  0
   17.7207  -16.6205    0.0000 C   0  0  0  0  0  0  0  0  0  0  0  0
   14.3297  -18.0448    0.0000 C   0  0  0  0  0  0  0  0  0  0  0  0
   13.1125  -17.3609    0.0000 C   0  0  0  0  0  0  0  0  0  0  0  0
   11.9101  -18.0746    0.0000 C   0  0  0  0  0  0  0  0  0  0  0  0
   11.8572  -19.4728    0.0000 C   0  0  0  0  0  0  0  0  0  0  0  0
   13.1428  -20.1553    0.0000 C   0  0  0  0  0  0  0  0  0  0  0  0
   14.3452  -19.4415    0.0000 C   0  0  0  0  0  0  0  0  0  0  0  0
   10.6567  -20.1646    0.0000 O   0  0  0  0  0  0  0  0  0  0  0  0
   15.5549  -20.1213    0.0000 C   0  0  0  0  0  0  0  0  0  0  0  0
   16.7300  -19.4245    0.0000 C   0  0  0  0  0  0  0  0  0  0  0  0
   25.4691  -12.7122    0.0000 C   0  0  0  0  0  0  0  0  0  0  0  0
   26.6728  -13.4071    0.0000 C   0  0  0  0  0  0  0  0  0  0  0  0
   25.4688  -11.3250    0.0000 C   0  0  0  0  0  0  0  0  0  0  0  0
   25.4691  -15.5308    0.0000 C   0  0  0  0  0  0  0  0  0  0  0  0
   26.6728  -14.8360    0.0000 O   0  0  0  0  0  0  0  0  0  0  0  0
   25.4688  -16.9180    0.0000 N   0  0  0  0  0  0  0  0  0  0  0  0
   24.4721  -17.9145    0.0000 C   0  0  0  0  0  0  0  0  0  0  0  0
   25.4686  -18.9113    0.0000 C   0  0  0  0  0  0  0  0  0  0  0  0
   26.4653  -17.9148    0.0000 C   0  0  0  0  0  0  0  0  0  0  0  0
   25.4688  -20.3438    0.0000 N   0  0  0  0  0  0  0  0  0  0  0  0
   26.6680  -21.0361    0.0000 C   0  0  0  0  0  0  0  0  0  0  0  0
   24.2462  -21.0500    0.0000 C   0  0  0  0  0  0  0  0  0  0  0  0
  1  2  2  0     0  0
  2  3  1  0     0  0
  3  4  1  0     0  0
  4  5  1  0     0  0
  5  6  1  0     0  0
  1  6  1  0     0  0
  1  7  1  0     0  0
  7  8  2  0     0  0
  8  9  1  0     0  0
  2  9  1  0     0  0
  8 10  1  0     0  0
 10 11  2  0     0  0
 11 12  1  0     0  0
 12 13  1  0     0  0
 13 14  1  0     0  0
 10 14  1  0     0  0
 13 15  2  0     0  0
 15 16  1  0     0  0
 16 17  2  0     0  0
 17 18  1  0     0  0
 14 18  2  0     0  0
 16 19  1  0     0  0
 19 20  2  0     0  0
 20 21  1  0     0  0
 21 22  2  0     0  0
 22 23  1  0     0  0
 23 24  2  0     0  0
 19 24  1  0     0  0
 22 25  1  0     0  0
 24 26  1  0     0  0
 26 27  1  0     0  0
  5 28  1  0     0  0
 28 29  1  0     0  0
 28 30  1  0     0  0
  4 31  1  6     0  0
 31 32  2  0     0  0
 31 33  1  0     0  0
 33 34  1  0     0  0
 34 35  1  0     0  0
 35 36  1  0     0  0
 33 36  1  0     0  0
 35 37  1  0     0  0
 37 38  1  0     0  0
 37 39  1  0     0  0
M  END
