 
 
 
 28 30  0  0  0  0  0  0  0  0999 V2000
    8.6800  -15.1900    0.0000 C   0  0  0  0  0  0  0  0  0  0  0  0
    8.6800  -16.5900    0.0000 C   0  0  0  0  0  0  0  0  0  0  0  0
    9.8924  -17.2900    0.0000 C   0  0  0  0  0  0  0  0  0  0  0  0
   11.1049  -16.5900    0.0000 C   0  0  0  0  0  0  0  0  0  0  0  0
   11.1049  -15.1900    0.0000 C   0  0  0  0  0  0  0  0  0  0  0  0
    9.8924  -14.4900    0.0000 C   0  0  0  0  0  0  0  0  0  0  0  0
   12.3360  -14.4790    0.0000 S   0  0  0  0  0  0  0  0  0  0  0  0
   13.5412  -15.1747    0.0000 C   0  0  0  0  0  0  0  0  0  0  0  0
   13.5416  -16.5896    0.0000 C   0  0  0  0  0  0  0  0  0  0  0  0
   14.7542  -17.2893    0.0000 C   0  0  0  0  0  0  0  0  0  0  0  0
   15.9665  -16.5889    0.0000 C   0  0  0  0  0  0  0  0  0  0  0  0
   15.9660  -15.1739    0.0000 N   0  0  0  0  0  0  0  0  0  0  0  0
   14.7534  -14.4743    0.0000 C   0  0  0  0  0  0  0  0  0  0  0  0
    7.4676  -17.2900    0.0000 O   0  0  0  0  0  0  0  0  0  0  0  0
    6.2721  -16.5996    0.0000 C   0  0  0  0  0  0  0  0  0  0  0  0
    5.0596  -15.8996    0.0000 F   0  0  0  0  0  0  0  0  0  0  0  0
    6.9721  -15.3872    0.0000 F   0  0  0  0  0  0  0  0  0  0  0  0
    5.5721  -17.8120    0.0000 F   0  0  0  0  0  0  0  0  0  0  0  0
   11.6360  -13.2665    0.0000 O   0  0  0  0  0  0  0  0  0  0  0  0
   13.0360  -13.2665    0.0000 O   0  0  0  0  0  0  0  0  0  0  0  0
   14.7546  -18.6899    0.0000 N   0  0  0  0  0  0  0  0  0  0  0  0
   17.1747  -17.2860    0.0000 C   0  0  0  0  0  0  0  0  0  0  0  0
   17.1275  -18.6898    0.0000 N   0  0  0  0  0  0  0  0  0  0  0  0
   18.4445  -19.1678    0.0000 N   0  0  0  0  0  0  0  0  0  0  0  0
   19.3061  -18.0629    0.0000 C   0  0  0  0  0  0  0  0  0  0  0  0
   18.5215  -16.9020    0.0000 O   0  0  0  0  0  0  0  0  0  0  0  0
   20.7191  -18.0409    0.0000 C   0  0  0  0  0  0  0  0  0  0  0  0
   21.4466  -19.2567    0.0000 O   0  0  0  0  0  0  0  0  0  0  0  0
  1  2  2  0     0  0
  2  3  1  0     0  0
  3  4  2  0     0  0
  4  5  1  0     0  0
  5  6  2  0     0  0
  1  6  1  0     0  0
  5  7  1  0     0  0
  7  8  1  0     0  0
  8  9  2  0     0  0
  9 10  1  0     0  0
 10 11  2  0     0  0
 11 12  1  0     0  0
 12 13  2  0     0  0
  8 13  1  0     0  0
  2 14  1  0     0  0
 14 15  1  0     0  0
 15 16  1  0     0  0
 15 17  1  0     0  0
 15 18  1  0     0  0
  7 19  2  0     0  0
  7 20  2  0     0  0
 10 21  1  0     0  0
 11 22  1  0     0  0
 22 23  2  0     0  0
 23 24  1  0     0  0
 24 25  2  0     0  0
 25 26  1  0     0  0
 22 26  1  0     0  0
 25 27  1  0     0  0
 27 28  1  0     0  0
M  END
