 
 
 
 38 40  0  0  1  0  0  0  0  0999 V2000
   13.9481  -17.2955    0.0000 C   0  0  0  0  0  0  0  0  0  0  0  0
   13.9481  -18.6903    0.0000 C   0  0  0  0  0  0  0  0  0  0  0  0
   15.1336  -19.3877    0.0000 C   0  0  0  0  0  0  0  0  0  0  0  0
   16.3192  -18.6903    0.0000 C   0  0  0  0  0  0  0  0  0  0  0  0
   16.3192  -17.2955    0.0000 C   0  0  0  0  0  0  0  0  0  0  0  0
   15.1336  -16.5981    0.0000 C   0  0  0  0  0  0  0  0  0  0  0  0
   17.5047  -19.3877    0.0000 C   0  0  0  0  0  0  0  0  0  0  0  0
   18.6903  -18.6903    0.0000 C   0  0  0  0  0  0  0  0  0  0  0  0
   18.6903  -17.2955    0.0000 C   0  0  0  0  0  0  0  0  0  0  0  0
   17.5047  -16.5981    0.0000 C   0  0  0  0  0  0  0  0  0  0  0  0
   19.8759  -16.5981    0.0000 C   0  0  0  0  0  0  0  0  0  0  0  0
   19.8759  -15.2034    0.0000 C   0  0  0  0  0  0  0  0  0  0  0  0
   18.6903  -14.5757    0.0000 C   0  0  0  0  0  0  0  0  0  0  0  0
   17.5047  -15.2034    0.0000 C   0  0  0  0  0  0  0  0  0  0  0  0
   22.2470  -16.5981    0.0000 C   0  0  0  0  0  0  0  0  0  0  0  0
   22.2470  -15.2034    0.0000 C   0  0  0  0  0  0  0  0  0  0  0  0
   21.0614  -14.5757    0.0000 C   0  0  0  0  0  0  0  0  0  0  0  0
   12.7625  -19.3877    0.0000 O   0  0  0  0  0  0  0  0  0  0  0  0
   11.5769  -18.6903    0.0000 S   0  0  0  0  0  0  0  0  0  0  0  0
   10.3914  -17.9929    0.0000 O   0  0  0  0  0  0  0  0  0  0  0  0
   12.2743  -17.5047    0.0000 O   0  0  0  0  0  0  0  0  0  0  0  0
   10.8795  -19.8759    0.0000 O   0  0  0  0  0  0  0  0  0  0  0  0
   16.3192  -15.9007    0.0000 C   0  0  0  0  0  0  0  0  0  0  0  0
   18.6903  -15.9007    0.0000 H   0  0  0  0  0  0  0  0  0  0  0  0
   19.8759  -13.8783    0.0000 C   0  0  0  0  0  0  0  0  0  0  0  0
   21.0614  -13.1809    0.0000 C   0  0  0  0  0  0  0  0  0  0  0  0
   22.2470  -12.4835    0.0000 C   0  0  0  0  0  0  0  0  0  0  0  0
   23.4326  -13.1809    0.0000 C   0  0  0  0  0  0  0  0  0  0  0  0
   24.6181  -12.4835    0.0000 C   0  0  0  0  0  0  0  0  0  0  0  0
   25.7339  -13.1809    0.0000 C   0  0  0  0  0  0  0  0  0  0  0  0
   26.9195  -12.4835    0.0000 C   0  0  0  0  0  0  0  0  0  0  0  0
   25.7339  -14.5757    0.0000 C   0  0  0  0  0  0  0  0  0  0  0  0
   26.9195  -13.8783    0.0000 O   0  0  0  0  0  0  0  0  0  0  0  0
   19.8759  -12.4835    0.0000 C   0  0  0  0  0  0  0  0  0  0  0  0
   19.8759  -17.9929    0.0000 H   0  0  0  0  0  0  0  0  0  0  0  0
   17.5047  -17.9929    0.0000 H   0  0  0  0  0  0  0  0  0  0  0  0
   22.2470  -13.8783    0.0000 H   0  0  0  0  0  0  0  0  0  0  0  0
   23.7300  -19.2500    0.0000 Na  0  0  0  0  0  0  0  0  0  0  0  0
  1  2  1  0     0  0
  2  3  1  0     0  0
  3  4  1  0     0  0
  4  5  1  0     0  0
  5  6  1  0     0  0
  1  6  1  0     0  0
  4  7  2  0     0  0
  7  8  1  0     0  0
  8  9  1  0     0  0
  9 10  1  0     0  0
  5 10  1  0     0  0
  9 11  1  0     0  0
 11 12  1  0     0  0
 12 13  1  0     0  0
 13 14  1  0     0  0
 10 14  1  0     0  0
 11 15  1  0     0  0
 15 16  1  0     0  0
 16 17  1  0     0  0
 12 17  1  0     0  0
  2 18  1  1     0  0
 18 19  1  0     0  0
 19 20  1  0     0  0
 19 21  2  0     0  0
 19 22  2  0     0  0
  5 23  1  1     0  0
  9 24  1  1     0  0
 12 25  1  1     0  0
 17 26  1  0     0  0
 26 27  1  0     0  0
 27 28  1  0     0  0
 28 29  1  0     0  0
 29 30  1  0     0  0
 30 31  1  0     0  0
 30 32  1  0     0  0
 30 33  1  0     0  0
 26 34  1  6     0  0
 11 35  1  6     0  0
 10 36  1  6     0  0
 17 37  1  6     0  0
M  END
