 
 
 
 50 55  0  0  1  0  0  0  0  0999 V2000
   18.8300  -17.2900    0.0000 N   0  0  0  0  0  0  0  0  0  0  0  0
   18.8300  -18.6900    0.0000 C   0  0  0  0  0  0  0  0  0  0  0  0
   20.0200  -19.3900    0.0000 C   0  0  0  0  0  0  0  0  0  0  0  0
   21.2800  -18.6900    0.0000 C   0  0  0  0  0  0  0  0  0  0  0  0
   21.2800  -17.2900    0.0000 C   0  0  0  0  0  0  0  0  0  0  0  0
   20.0200  -16.5900    0.0000 C   0  0  0  0  0  0  0  0  0  0  0  0
   22.4700  -19.3900    0.0000 C   0  0  0  0  0  0  0  0  0  0  0  0
   23.6600  -18.6900    0.0000 O   0  0  0  0  0  0  0  0  0  0  0  0
   22.4700  -20.7900    0.0000 O   0  0  0  0  0  0  0  0  0  0  0  0
   17.6400  -16.5900    0.0000 C   0  0  0  0  0  0  0  0  0  0  0  0
   17.6400  -15.1900    0.0000 C   0  0  0  0  0  0  0  0  0  0  0  0
   16.3800  -14.4900    0.0000 C   0  0  0  0  0  0  0  0  0  0  0  0
   15.1900  -15.1900    0.0000 C   0  0  0  0  0  0  0  0  0  0  0  0
   15.1900  -16.5900    0.0000 C   0  0  0  0  0  0  0  0  0  0  0  0
   16.3800  -17.2900    0.0000 C   0  0  0  0  0  0  0  0  0  0  0  0
   14.0000  -17.2900    0.0000 C   0  0  0  0  0  0  0  0  0  0  0  0
   12.7400  -17.9900    0.0000 F   0  0  0  0  0  0  0  0  0  0  0  0
   13.3000  -16.1000    0.0000 F   0  0  0  0  0  0  0  0  0  0  0  0
   14.7000  -18.4800    0.0000 F   0  0  0  0  0  0  0  0  0  0  0  0
   18.8300  -14.4900    0.0000 C   0  0  0  0  0  0  0  0  0  0  0  0
   20.2300  -14.4900    0.0000 C   0  0  0  0  0  0  0  0  0  0  0  0
   20.7200  -13.2300    0.0000 N   0  0  0  0  0  0  0  0  0  0  0  0
   19.6000  -12.3900    0.0000 C   0  0  0  0  0  0  0  0  0  0  0  0
   18.4800  -13.1600    0.0000 C   0  0  0  0  0  0  0  0  0  0  0  0
   21.9100  -12.5300    0.0000 C   0  0  0  0  0  0  0  0  0  0  0  0
   23.1000  -13.2300    0.0000 C   0  0  0  0  0  0  0  0  0  0  0  0
   23.5200  -14.5600    0.0000 C   0  0  0  0  0  0  0  0  0  0  0  0
   24.9200  -14.5600    0.0000 N   0  0  0  0  0  0  0  0  0  0  0  0
   25.3400  -13.3000    0.0000 C   0  0  0  0  0  0  0  0  0  0  0  0
   24.2200  -12.4600    0.0000 C   0  0  0  0  0  0  0  0  0  0  0  0
   25.6900  -15.7500    0.0000 C   0  0  0  0  0  0  0  0  0  0  0  0
   25.2000  -17.0800    0.0000 C   0  0  0  0  0  0  0  0  0  0  0  0
   26.3900  -17.9200    0.0000 C   0  0  0  0  0  0  0  0  0  0  0  0
   27.5100  -17.0800    0.0000 C   0  0  0  0  0  0  0  0  0  0  0  0
   27.0900  -15.7500    0.0000 C   0  0  0  0  0  0  0  0  0  0  0  0
   25.4100  -10.3600    0.0000 C   0  0  0  0  0  0  0  0  0  0  0  0
   25.4100  -11.7600    0.0000 C   0  0  0  0  0  0  0  0  0  0  0  0
   26.6000  -12.4600    0.0000 C   0  0  0  0  0  0  0  0  0  0  0  0
   27.8600  -11.7600    0.0000 C   0  0  0  0  0  0  0  0  0  0  0  0
   27.8600  -10.3600    0.0000 C   0  0  0  0  0  0  0  0  0  0  0  0
   26.6000   -9.6600    0.0000 C   0  0  0  0  0  0  0  0  0  0  0  0
   29.0500   -9.6600    0.0000 O   0  0  0  0  0  0  0  0  0  0  0  0
   30.3100  -10.3600    0.0000 C   0  0  0  0  0  0  0  0  0  0  0  0
   23.0300  -11.7600    0.0000 H   0  0  0  0  0  0  0  0  0  0  0  0
   21.9800  -14.0700    0.0000 F   0  0  0  0  0  0  0  0  0  0  0  0
   21.9100  -11.1300    0.0000 O   0  0  0  0  0  0  0  0  0  0  0  0
   19.1800  -15.8200    0.0000 H   0  0  0  0  0  0  0  0  0  0  0  0
   17.2900  -12.4600    0.0000 C   0  0  0  0  0  0  0  0  0  0  0  0
   16.1000  -13.1600    0.0000 O   0  0  0  0  0  0  0  0  0  0  0  0
   14.9100  -12.4600    0.0000 C   0  0  0  0  0  0  0  0  0  0  0  0
  1  2  1  0     0  0
  2  3  1  0     0  0
  3  4  1  0     0  0
  4  5  1  0     0  0
  5  6  1  0     0  0
  1  6  1  0     0  0
  4  7  1  0     0  0
  7  8  1  0     0  0
  7  9  2  0     0  0
  1 10  1  0     0  0
 10 11  2  0     0  0
 11 12  1  0     0  0
 12 13  2  0     0  0
 13 14  1  0     0  0
 14 15  2  0     0  0
 10 15  1  0     0  0
 14 16  1  0     0  0
 16 17  1  0     0  0
 16 18  1  0     0  0
 16 19  1  0     0  0
 20 11  1  6     0  0
 20 21  1  0     0  0
 21 22  1  0     0  0
 22 23  1  0     0  0
 23 24  1  0     0  0
 20 24  1  0     0  0
 26 25  1  1     0  0
 25 22  1  0     0  0
 26 27  1  0     0  0
 27 28  1  0     0  0
 28 29  1  0     0  0
 29 30  1  0     0  0
 26 30  1  0     0  0
 28 31  1  0     0  0
 31 32  1  0     0  0
 32 33  1  0     0  0
 33 34  1  0     0  0
 34 35  1  0     0  0
 31 35  1  0     0  0
 36 37  2  0     0  0
 37 38  1  0     0  0
 38 39  2  0     0  0
 39 40  1  0     0  0
 40 41  2  0     0  0
 36 41  1  0     0  0
 30 37  1  6     0  0
 40 42  1  0     0  0
 42 43  1  0     0  0
 30 44  1  1     0  0
 26 45  1  6     0  0
 25 46  2  0     0  0
 20 47  1  1     0  0
 24 48  1  1     0  0
 48 49  1  0     0  0
 49 50  1  0     0  0
M  END
