 
 
 
 31 34  0  0  0  0  0  0  0  0999 V2000
   13.8600  -12.6700    0.0000 N   0  0  0  0  0  0  0  0  0  0  0  0
   13.8600  -14.0700    0.0000 C   0  0  0  0  0  0  0  0  0  0  0  0
   15.0724  -14.7700    0.0000 C   0  0  0  0  0  0  0  0  0  0  0  0
   16.2849  -14.0700    0.0000 C   0  0  0  0  0  0  0  0  0  0  0  0
   16.2849  -12.6700    0.0000 C   0  0  0  0  0  0  0  0  0  0  0  0
   15.0724  -11.9700    0.0000 N   0  0  0  0  0  0  0  0  0  0  0  0
   17.6164  -14.5026    0.0000 N   0  0  0  0  0  0  0  0  0  0  0  0
   18.4393  -13.3700    0.0000 C   0  0  0  0  0  0  0  0  0  0  0  0
   17.6164  -12.2374    0.0000 N   0  0  0  0  0  0  0  0  0  0  0  0
   18.0475  -10.9106    0.0000 C   0  0  0  0  0  0  0  0  0  0  0  0
   19.4269  -10.6174    0.0000 C   0  0  0  0  0  0  0  0  0  0  0  0
   15.0724  -16.1698    0.0000 C   0  0  0  0  0  0  0  0  0  0  0  0
   13.8432  -16.8797    0.0000 C   0  0  0  0  0  0  0  0  0  0  0  0
   13.8434  -18.2797    0.0000 C   0  0  0  0  0  0  0  0  0  0  0  0
   15.0559  -18.9796    0.0000 C   0  0  0  0  0  0  0  0  0  0  0  0
   16.2851  -18.2697    0.0000 C   0  0  0  0  0  0  0  0  0  0  0  0
   16.2849  -16.8697    0.0000 C   0  0  0  0  0  0  0  0  0  0  0  0
   12.6477  -18.9702    0.0000 C   0  0  0  0  0  0  0  0  0  0  0  0
   11.4519  -18.2798    0.0000 C   0  0  0  0  0  0  0  0  0  0  0  0
   10.2395  -18.9798    0.0000 C   0  0  0  0  0  0  0  0  0  0  0  0
   10.2395  -20.3798    0.0000 C   0  0  0  0  0  0  0  0  0  0  0  0
   11.4352  -21.0702    0.0000 C   0  0  0  0  0  0  0  0  0  0  0  0
   12.6477  -20.3702    0.0000 C   0  0  0  0  0  0  0  0  0  0  0  0
   15.0560  -20.3700    0.0000 F   0  0  0  0  0  0  0  0  0  0  0  0
   13.8766  -21.0799    0.0000 O   0  0  0  0  0  0  0  0  0  0  0  0
   13.8766  -22.4799    0.0000 C   0  0  0  0  0  0  0  0  0  0  0  0
    9.0169  -21.0859    0.0000 S   0  0  0  0  0  0  0  0  0  0  0  0
    7.8044  -21.7859    0.0000 C   0  0  0  0  0  0  0  0  0  0  0  0
    6.5593  -21.0669    0.0000 C   0  0  0  0  0  0  0  0  0  0  0  0
    8.3169  -19.8734    0.0000 O   0  0  0  0  0  0  0  0  0  0  0  0
    9.7169  -22.2983    0.0000 O   0  0  0  0  0  0  0  0  0  0  0  0
  1  2  2  0     0  0
  2  3  1  0     0  0
  3  4  2  0     0  0
  4  5  1  0     0  0
  5  6  2  0     0  0
  1  6  1  0     0  0
  4  7  1  0     0  0
  7  8  2  0     0  0
  8  9  1  0     0  0
  5  9  1  0     0  0
  9 10  1  0     0  0
 10 11  1  0     0  0
  3 12  1  0     0  0
 12 13  2  0     0  0
 13 14  1  0     0  0
 14 15  2  0     0  0
 15 16  1  0     0  0
 16 17  2  0     0  0
 12 17  1  0     0  0
 14 18  1  0     0  0
 18 19  2  0     0  0
 19 20  1  0     0  0
 20 21  2  0     0  0
 21 22  1  0     0  0
 22 23  2  0     0  0
 18 23  1  0     0  0
 15 24  1  0     0  0
 23 25  1  0     0  0
 25 26  1  0     0  0
 21 27  1  0     0  0
 27 28  1  0     0  0
 28 29  1  0     0  0
 27 30  2  0     0  0
 27 31  2  0     0  0
M  END
