 
 
 
 32 35  0  0  0  0  0  0  0  0999 V2000
    7.4900  -16.5900    0.0000 C   0  0  0  0  0  0  0  0  0  0  0  0
    7.4900  -17.9900    0.0000 C   0  0  0  0  0  0  0  0  0  0  0  0
    8.7024  -18.6900    0.0000 C   0  0  0  0  0  0  0  0  0  0  0  0
    9.9149  -17.9900    0.0000 C   0  0  0  0  0  0  0  0  0  0  0  0
    9.9149  -16.5900    0.0000 C   0  0  0  0  0  0  0  0  0  0  0  0
    8.7024  -15.8900    0.0000 N   0  0  0  0  0  0  0  0  0  0  0  0
    6.2776  -18.6900    0.0000 C   0  0  0  0  0  0  0  0  0  0  0  0
    5.0651  -19.3900    0.0000 N   0  0  0  0  0  0  0  0  0  0  0  0
   11.1460  -15.8790    0.0000 N   0  0  0  0  0  0  0  0  0  0  0  0
   12.3512  -16.5747    0.0000 C   0  0  0  0  0  0  0  0  0  0  0  0
   13.5335  -15.8919    0.0000 C   0  0  0  0  0  0  0  0  0  0  0  0
   14.7275  -16.5812    0.0000 N   0  0  0  0  0  0  0  0  0  0  0  0
   15.9154  -15.8952    0.0000 C   0  0  0  0  0  0  0  0  0  0  0  0
   17.1065  -16.5829    0.0000 N   0  0  0  0  0  0  0  0  0  0  0  0
   18.3190  -15.8829    0.0000 C   0  0  0  0  0  0  0  0  0  0  0  0
   18.3190  -14.4829    0.0000 C   0  0  0  0  0  0  0  0  0  0  0  0
   17.1279  -13.7952    0.0000 C   0  0  0  0  0  0  0  0  0  0  0  0
   15.9155  -14.4952    0.0000 N   0  0  0  0  0  0  0  0  0  0  0  0
   19.5440  -13.7755    0.0000 C   0  0  0  0  0  0  0  0  0  0  0  0
   19.5502  -16.5939    0.0000 C   0  0  0  0  0  0  0  0  0  0  0  0
   19.5500  -17.9899    0.0000 C   0  0  0  0  0  0  0  0  0  0  0  0
   20.7624  -18.6900    0.0000 C   0  0  0  0  0  0  0  0  0  0  0  0
   21.9749  -17.9901    0.0000 C   0  0  0  0  0  0  0  0  0  0  0  0
   21.9750  -16.5942    0.0000 C   0  0  0  0  0  0  0  0  0  0  0  0
   20.7627  -15.8940    0.0000 C   0  0  0  0  0  0  0  0  0  0  0  0
   20.8166  -14.3421    0.0000 N   0  0  0  0  0  0  0  0  0  0  0  0
   21.7486  -13.3068    0.0000 C   0  0  0  0  0  0  0  0  0  0  0  0
   21.0521  -12.1005    0.0000 C   0  0  0  0  0  0  0  0  0  0  0  0
   19.6895  -12.3901    0.0000 N   0  0  0  0  0  0  0  0  0  0  0  0
   23.1613  -13.4554    0.0000 C   0  0  0  0  0  0  0  0  0  0  0  0
   18.3225  -18.6985    0.0000 Cl  0  0  0  0  0  0  0  0  0  0  0  0
   23.1910  -18.6924    0.0000 Cl  0  0  0  0  0  0  0  0  0  0  0  0
  1  2  2  0     0  0
  2  3  1  0     0  0
  3  4  2  0     0  0
  4  5  1  0     0  0
  5  6  2  0     0  0
  1  6  1  0     0  0
  2  7  1  0     0  0
  7  8  3  0     0  0
  5  9  1  0     0  0
  9 10  1  0     0  0
 10 11  1  0     0  0
 11 12  1  0     0  0
 12 13  1  0     0  0
 13 14  2  0     0  0
 14 15  1  0     0  0
 15 16  2  0     0  0
 16 17  1  0     0  0
 17 18  2  0     0  0
 13 18  1  0     0  0
 16 19  1  0     0  0
 15 20  1  0     0  0
 20 21  2  0     0  0
 21 22  1  0     0  0
 22 23  2  0     0  0
 23 24  1  0     0  0
 24 25  2  0     0  0
 20 25  1  0     0  0
 19 26  1  0     0  0
 26 27  1  0     0  0
 27 28  2  0     0  0
 28 29  1  0     0  0
 19 29  2  0     0  0
 27 30  1  0     0  0
 21 31  1  0     0  0
 23 32  1  0     0  0
M  END
