 
 
 
 25 26  0  0  1  0  0  0  0  0999 V2000
   12.8100  -16.3800    0.0000 C   0  0  0  0  0  0  0  0  0  0  0  0
   13.3000  -15.1200    0.0000 C   0  0  0  0  0  0  0  0  0  0  0  0
   12.1800  -14.2800    0.0000 O   0  0  0  0  0  0  0  0  0  0  0  0
   11.0600  -15.0500    0.0000 C   0  0  0  0  0  0  0  0  0  0  0  0
   11.4100  -16.3800    0.0000 C   0  0  0  0  0  0  0  0  0  0  0  0
   10.6400  -17.5000    0.0000 O   0  0  0  0  0  0  0  0  0  0  0  0
   13.5800  -17.5700    0.0000 O   0  0  0  0  0  0  0  0  0  0  0  0
    9.8700  -14.3500    0.0000 C   0  0  0  0  0  0  0  0  0  0  0  0
    8.6800  -15.0500    0.0000 O   0  0  0  0  0  0  0  0  0  0  0  0
   14.4900  -13.0200    0.0000 C   0  0  0  0  0  0  0  0  0  0  0  0
   14.4900  -14.4200    0.0000 N   0  0  0  0  0  0  0  0  0  0  0  0
   15.6800  -15.1200    0.0000 C   0  0  0  0  0  0  0  0  0  0  0  0
   16.9400  -14.4200    0.0000 N   0  0  0  0  0  0  0  0  0  0  0  0
   16.9400  -13.0200    0.0000 C   0  0  0  0  0  0  0  0  0  0  0  0
   15.6800  -12.3200    0.0000 C   0  0  0  0  0  0  0  0  0  0  0  0
   15.6800  -16.5200    0.0000 O   0  0  0  0  0  0  0  0  0  0  0  0
   18.1466  -12.3100    0.0000 N   0  0  0  0  0  0  0  0  0  0  0  0
   19.3563  -12.9953    0.0000 C   0  0  0  0  0  0  0  0  0  0  0  0
   20.5766  -12.2770    0.0000 C   0  0  0  0  0  0  0  0  0  0  0  0
   19.3676  -14.4198    0.0000 O   0  0  0  0  0  0  0  0  0  0  0  0
   21.7858  -12.9613    0.0000 C   0  0  0  0  0  0  0  0  0  0  0  0
   22.9852  -12.2549    0.0000 C   0  0  0  0  0  0  0  0  0  0  0  0
   21.7977  -14.3497    0.0000 N   0  0  0  0  0  0  0  0  0  0  0  0
   24.1824  -12.9324    0.0000 O   0  0  0  0  0  0  0  0  0  0  0  0
   22.9732  -10.8501    0.0000 O   0  0  0  0  0  0  0  0  0  0  0  0
  1  2  1  0     0  0
  2  3  1  0     0  0
  3  4  1  0     0  0
  4  5  1  0     0  0
  1  5  1  0     0  0
  5  6  1  6     0  0
  1  7  1  1     0  0
  4  8  1  1     0  0
  8  9  1  0     0  0
 10 11  1  0     0  0
 11 12  1  0     0  0
 12 13  1  0     0  0
 13 14  2  0     0  0
 14 15  1  0     0  0
 10 15  2  0     0  0
 12 16  2  0     0  0
  2 11  1  1     0  0
 14 17  1  0     0  0
 17 18  1  0     0  0
 18 19  1  0     0  0
 18 20  2  0     0  0
 19 21  1  0     0  0
 21 22  1  0     0  0
 21 23  1  1     0  0
 22 24  1  0     0  0
 22 25  2  0     0  0
M  END
