 
 
 
 66 72  0  0  1  0  0  0  0  0999 V2000
   24.0800  -13.0200    0.0000 C   0  0  0  0  0  0  0  0  0  0  0  0
   22.8900  -13.7200    0.0000 C   0  0  0  0  0  0  0  0  0  0  0  0
   22.8900  -15.1200    0.0000 C   0  0  0  0  0  0  0  0  0  0  0  0
   24.1500  -15.8200    0.0000 C   0  0  0  0  0  0  0  0  0  0  0  0
   25.3400  -15.1200    0.0000 C   0  0  0  0  0  0  0  0  0  0  0  0
   25.3400  -13.6500    0.0000 C   0  0  0  0  0  0  0  0  0  0  0  0
   21.7000  -15.8200    0.0000 C   0  0  0  0  0  0  0  0  0  0  0  0
   20.5100  -15.1900    0.0000 C   0  0  0  0  0  0  0  0  0  0  0  0
   19.2500  -15.8900    0.0000 C   0  0  0  0  0  0  0  0  0  0  0  0
   18.0600  -15.2600    0.0000 N   0  0  0  0  0  0  0  0  0  0  0  0
   16.8700  -15.9600    0.0000 C   0  0  0  0  0  0  0  0  0  0  0  0
   16.8700  -17.3600    0.0000 C   0  0  0  0  0  0  0  0  0  0  0  0
   18.0600  -17.9900    0.0000 C   0  0  0  0  0  0  0  0  0  0  0  0
   19.2500  -17.2900    0.0000 C   0  0  0  0  0  0  0  0  0  0  0  0
   20.4400  -13.7900    0.0000 N   0  0  0  0  0  0  0  0  0  0  0  0
   19.2500  -13.0900    0.0000 C   0  0  0  0  0  0  0  0  0  0  0  0
   19.2500  -11.7600    0.0000 C   0  0  0  0  0  0  0  0  0  0  0  0
   18.0600  -13.8600    0.0000 O   0  0  0  0  0  0  0  0  0  0  0  0
   15.6100  -15.2600    0.0000 C   0  0  0  0  0  0  0  0  0  0  0  0
   14.4200  -14.5600    0.0000 C   0  0  0  0  0  0  0  0  0  0  0  0
   13.1600  -13.8600    0.0000 C   0  0  0  0  0  0  0  0  0  0  0  0
   11.9700  -13.2300    0.0000 S   0  0  0  0  0  0  0  0  0  0  0  0
   13.9300  -12.6700    0.0000 C   0  0  0  0  0  0  0  0  0  0  0  0
   12.5300  -15.1200    0.0000 C   0  0  0  0  0  0  0  0  0  0  0  0
   10.7100  -12.5300    0.0000 C   0  0  0  0  0  0  0  0  0  0  0  0
   12.6700  -11.9700    0.0000 O   0  0  0  0  0  0  0  0  0  0  0  0
   11.2700  -14.4200    0.0000 O   0  0  0  0  0  0  0  0  0  0  0  0
   20.5100  -17.9200    0.0000 C   0  0  0  0  0  0  0  0  0  0  0  0
   20.5100  -19.3200    0.0000 C   0  0  0  0  0  0  0  0  0  0  0  0
   21.7700  -20.0200    0.0000 C   0  0  0  0  0  0  0  0  0  0  0  0
   22.9600  -19.3200    0.0000 C   0  0  0  0  0  0  0  0  0  0  0  0
   22.9600  -17.9200    0.0000 C   0  0  0  0  0  0  0  0  0  0  0  0
   21.7000  -17.2200    0.0000 C   0  0  0  0  0  0  0  0  0  0  0  0
   24.1500  -20.0200    0.0000 Cl  0  0  0  0  0  0  0  0  0  0  0  0
   19.5300  -20.3000    0.0000 N   0  0  0  0  0  0  0  0  0  0  0  0
   20.0200  -21.5600    0.0000 N   0  0  0  0  0  0  0  0  0  0  0  0
   21.4900  -21.4200    0.0000 C   0  0  0  0  0  0  0  0  0  0  0  0
   18.2000  -20.0900    0.0000 C   0  0  0  0  0  0  0  0  0  0  0  0
   17.2200  -21.1400    0.0000 C   0  0  0  0  0  0  0  0  0  0  0  0
   16.3100  -22.1200    0.0000 F   0  0  0  0  0  0  0  0  0  0  0  0
   16.2400  -20.1600    0.0000 F   0  0  0  0  0  0  0  0  0  0  0  0
   18.2000  -22.0500    0.0000 F   0  0  0  0  0  0  0  0  0  0  0  0
   22.4700  -22.4700    0.0000 N   0  0  0  0  0  0  0  0  0  0  0  0
   22.0500  -23.8000    0.0000 S   0  0  0  0  0  0  0  0  0  0  0  0
   21.3500  -24.9900    0.0000 C   0  0  0  0  0  0  0  0  0  0  0  0
   20.8600  -23.1700    0.0000 O   0  0  0  0  0  0  0  0  0  0  0  0
   23.2400  -24.5000    0.0000 O   0  0  0  0  0  0  0  0  0  0  0  0
   26.6000  -15.7500    0.0000 F   0  0  0  0  0  0  0  0  0  0  0  0
   24.0800  -11.6200    0.0000 F   0  0  0  0  0  0  0  0  0  0  0  0
   18.0600  -11.0600    0.0000 N   0  0  0  0  0  0  0  0  0  0  0  0
   18.0600   -9.6600    0.0000 C   0  0  0  0  0  0  0  0  0  0  0  0
   16.7300   -9.2400    0.0000 C   0  0  0  0  0  0  0  0  0  0  0  0
   15.8900  -10.3600    0.0000 C   0  0  0  0  0  0  0  0  0  0  0  0
   16.6600  -11.4800    0.0000 N   0  0  0  0  0  0  0  0  0  0  0  0
   18.9000   -8.5400    0.0000 C   0  0  0  0  0  0  0  0  0  0  0  0
   18.0600   -7.3500    0.0000 C   0  0  0  0  0  0  0  0  0  0  0  0
   16.7300   -7.8400    0.0000 C   0  0  0  0  0  0  0  0  0  0  0  0
   20.3000   -8.5400    0.0000 F   0  0  0  0  0  0  0  0  0  0  0  0
   19.5300   -9.8000    0.0000 F   0  0  0  0  0  0  0  0  0  0  0  0
   17.0100   -6.4400    0.0000 C   0  0  0  0  0  0  0  0  0  0  0  0
   14.4900  -10.3600    0.0000 C   0  0  0  0  0  0  0  0  0  0  0  0
   13.0900  -10.3600    0.0000 F   0  0  0  0  0  0  0  0  0  0  0  0
   14.4900   -8.9600    0.0000 F   0  0  0  0  0  0  0  0  0  0  0  0
   14.4900  -11.7600    0.0000 F   0  0  0  0  0  0  0  0  0  0  0  0
   15.3777   -8.2023    0.0000 H   0  0  0  0  0  0  0  0  0  0  0  0
   19.4123   -6.9877    0.0000 H   0  0  0  0  0  0  0  0  0  0  0  0
  1  2  2  0     0  0
  2  3  1  0     0  0
  3  4  2  0     0  0
  4  5  1  0     0  0
  5  6  2  0     0  0
  1  6  1  0     0  0
  3  7  1  0     0  0
  7  8  1  0     0  0
  8  9  1  0     0  0
  9 10  1  0     0  0
 10 11  2  0     0  0
 11 12  1  0     0  0
 12 13  2  0     0  0
 13 14  1  0     0  0
  9 14  2  0     0  0
  8 15  1  1     0  0
 15 16  1  0     0  0
 16 17  1  0     0  0
 16 18  2  0     0  0
 11 19  1  0     0  0
 19 20  3  0     0  0
 20 21  1  0     0  0
 21 22  1  0     0  0
 21 23  1  0     0  0
 21 24  1  0     0  0
 22 25  1  0     0  0
 22 26  2  0     0  0
 22 27  2  0     0  0
 14 28  1  0     0  0
 28 29  1  0     0  0
 29 30  2  0     0  0
 30 31  1  0     0  0
 31 32  2  0     0  0
 32 33  1  0     0  0
 28 33  2  0     0  0
 31 34  1  0     0  0
 29 35  1  0     0  0
 35 36  1  0     0  0
 36 37  2  0     0  0
 30 37  1  0     0  0
 35 38  1  0     0  0
 38 39  1  0     0  0
 39 40  1  0     0  0
 39 41  1  0     0  0
 39 42  1  0     0  0
 37 43  1  0     0  0
 43 44  1  0     0  0
 44 45  1  0     0  0
 44 46  2  0     0  0
 44 47  2  0     0  0
  5 48  1  0     0  0
  1 49  1  0     0  0
 17 50  1  0     0  0
 50 51  1  0     0  0
 51 52  2  0     0  0
 52 53  1  0     0  0
 53 54  2  0     0  0
 50 54  1  0     0  0
 51 55  1  0     0  0
 55 56  1  0     0  0
 56 57  1  0     0  0
 52 57  1  0     0  0
 55 58  1  0     0  0
 55 59  1  0     0  0
 56 60  1  0     0  0
 60 57  1  0     0  0
 53 61  1  0     0  0
 61 62  1  0     0  0
 61 63  1  0     0  0
 61 64  1  0     0  0
 57 65  1  6     0  0
 56 66  1  6     0  0
M  END
