 
 
 
 38 42  0  0  1  0  0  0  0  0999 V2000
    9.3100  -14.4200    0.0000 C   0  0  0  0  0  0  0  0  0  0  0  0
    8.1900  -15.3300    0.0000 C   0  0  0  0  0  0  0  0  0  0  0  0
    6.8600  -14.9800    0.0000 C   0  0  0  0  0  0  0  0  0  0  0  0
    6.2300  -13.7200    0.0000 C   0  0  0  0  0  0  0  0  0  0  0  0
    9.3100  -13.0200    0.0000 C   0  0  0  0  0  0  0  0  0  0  0  0
    6.8600  -12.4600    0.0000 C   0  0  0  0  0  0  0  0  0  0  0  0
    8.1900  -12.1800    0.0000 C   0  0  0  0  0  0  0  0  0  0  0  0
   10.5700  -15.0500    0.0000 C   0  0  0  0  0  0  0  0  0  0  0  0
   10.5700  -12.3900    0.0000 C   0  0  0  0  0  0  0  0  0  0  0  0
   10.5700  -16.4500    0.0000 C   0  0  0  0  0  0  0  0  0  0  0  0
   11.8300  -17.1500    0.0000 C   0  0  0  0  0  0  0  0  0  0  0  0
   13.0200  -16.3800    0.0000 C   0  0  0  0  0  0  0  0  0  0  0  0
   13.0200  -14.9800    0.0000 C   0  0  0  0  0  0  0  0  0  0  0  0
   11.7600  -14.2800    0.0000 C   0  0  0  0  0  0  0  0  0  0  0  0
   11.7600  -13.0900    0.0000 C   0  0  0  0  0  0  0  0  0  0  0  0
   13.0200  -12.3900    0.0000 C   0  0  0  0  0  0  0  0  0  0  0  0
   13.0200  -10.9900    0.0000 C   0  0  0  0  0  0  0  0  0  0  0  0
   11.7600  -10.2900    0.0000 C   0  0  0  0  0  0  0  0  0  0  0  0
   10.5700  -10.9900    0.0000 C   0  0  0  0  0  0  0  0  0  0  0  0
    9.3100  -10.3600    0.0000 Cl  0  0  0  0  0  0  0  0  0  0  0  0
   14.2100  -10.2900    0.0000 Cl  0  0  0  0  0  0  0  0  0  0  0  0
   14.2800  -17.0800    0.0000 O   0  0  0  0  0  0  0  0  0  0  0  0
   15.4700  -16.3100    0.0000 C   0  0  0  0  0  0  0  0  0  0  0  0
   16.5900  -17.1500    0.0000 C   0  0  0  0  0  0  0  0  0  0  0  0
   17.7100  -16.3800    0.0000 N   0  0  0  0  0  0  0  0  0  0  0  0
   17.3600  -14.9800    0.0000 C   0  0  0  0  0  0  0  0  0  0  0  0
   15.8900  -14.9800    0.0000 C   0  0  0  0  0  0  0  0  0  0  0  0
   18.9000  -17.0800    0.0000 C   0  0  0  0  0  0  0  0  0  0  0  0
   20.0900  -16.3800    0.0000 C   0  0  0  0  0  0  0  0  0  0  0  0
   21.2800  -17.0800    0.0000 C   0  0  0  0  0  0  0  0  0  0  0  0
   22.4700  -16.3800    0.0000 F   0  0  0  0  0  0  0  0  0  0  0  0
    5.8800  -15.9600    0.0000 C   0  0  0  0  0  0  0  0  0  0  0  0
    6.2300  -17.3600    0.0000 C   0  0  0  0  0  0  0  0  0  0  0  0
    7.5600  -17.7100    0.0000 C   0  0  0  0  0  0  0  0  0  0  0  0
    8.5400  -16.6600    0.0000 C   0  0  0  0  0  0  0  0  0  0  0  0
    5.2500  -18.3400    0.0000 C   0  0  0  0  0  0  0  0  0  0  0  0
    3.9200  -17.9900    0.0000 O   0  0  0  0  0  0  0  0  0  0  0  0
    5.6000  -19.6700    0.0000 O   0  0  0  0  0  0  0  0  0  0  0  0
  3  4  1  0     0  0
  1  5  2  0     0  0
  4  6  1  0     0  0
  2  3  1  0     0  0
  5  7  1  0     0  0
  1  2  1  0     0  0
  6  7  1  0     0  0
  1  8  1  0     0  0
  5  9  1  0     0  0
  8 10  2  0     0  0
 10 11  1  0     0  0
 11 12  2  0     0  0
 12 13  1  0     0  0
 13 14  2  0     0  0
  8 14  1  0     0  0
  9 15  2  0     0  0
 15 16  1  0     0  0
 16 17  2  0     0  0
 17 18  1  0     0  0
 18 19  2  0     0  0
  9 19  1  0     0  0
 19 20  1  0     0  0
 17 21  1  0     0  0
 12 22  1  0     0  0
 23 22  1  1     0  0
 23 24  1  0     0  0
 24 25  1  0     0  0
 25 26  1  0     0  0
 26 27  1  0     0  0
 23 27  1  0     0  0
 28 25  1  0     0  0
 28 29  1  0     0  0
 29 30  1  0     0  0
 30 31  1  0     0  0
  3 32  2  0     0  0
 32 33  1  0     0  0
 33 34  2  0     0  0
 34 35  1  0     0  0
  2 35  2  0     0  0
 33 36  1  0     0  0
 36 37  1  0     0  0
 36 38  2  0     0  0
M  END
