 
 
 
 26 26  0  0  1  0  0  0  0  0999 V2000
   15.0251  -18.3252    0.0000 C   0  0  0  0  0  0  0  0  0  0  0  0
   15.5166  -17.0614    0.0000 C   0  0  0  0  0  0  0  0  0  0  0  0
   14.3932  -16.2189    0.0000 O   0  0  0  0  0  0  0  0  0  0  0  0
   13.2698  -16.9912    0.0000 C   0  0  0  0  0  0  0  0  0  0  0  0
   13.6209  -18.3252    0.0000 C   0  0  0  0  0  0  0  0  0  0  0  0
   12.8486  -19.4486    0.0000 O   0  0  0  0  0  0  0  0  0  0  0  0
   15.7974  -19.5188    0.0000 O   0  0  0  0  0  0  0  0  0  0  0  0
   12.0762  -16.2891    0.0000 C   0  0  0  0  0  0  0  0  0  0  0  0
   10.8827  -16.9912    0.0000 O   0  0  0  0  0  0  0  0  0  0  0  0
   16.7101  -14.9551    0.0000 C   0  0  0  0  0  0  0  0  0  0  0  0
   16.7101  -16.3593    0.0000 N   0  0  0  0  0  0  0  0  0  0  0  0
   17.9037  -17.0614    0.0000 C   0  0  0  0  0  0  0  0  0  0  0  0
   19.1675  -16.3593    0.0000 N   0  0  0  0  0  0  0  0  0  0  0  0
   19.1675  -14.9551    0.0000 C   0  0  0  0  0  0  0  0  0  0  0  0
   17.9037  -14.2530    0.0000 C   0  0  0  0  0  0  0  0  0  0  0  0
   17.9037  -18.4656    0.0000 O   0  0  0  0  0  0  0  0  0  0  0  0
   20.3611  -14.2530    0.0000 N   0  0  0  0  0  0  0  0  0  0  0  0
   21.6249  -14.9551    0.0000 C   0  0  0  0  0  0  0  0  0  0  0  0
   22.8185  -14.1828    0.0000 C   0  0  0  0  0  0  0  0  0  0  0  0
   21.6249  -16.3593    0.0000 O   0  0  0  0  0  0  0  0  0  0  0  0
   24.0823  -14.8849    0.0000 C   0  0  0  0  0  0  0  0  0  0  0  0
   25.2758  -14.1828    0.0000 C   0  0  0  0  0  0  0  0  0  0  0  0
   24.0823  -16.2891    0.0000 N   0  0  0  0  0  0  0  0  0  0  0  0
   26.4694  -14.8849    0.0000 O   0  0  0  0  0  0  0  0  0  0  0  0
   25.2758  -12.7786    0.0000 O   0  0  0  0  0  0  0  0  0  0  0  0
   27.1600  -19.6700    0.0000 Cl  0  0  0  0  0  0  0  0  0  0  0  0
  1  2  1  0     0  0
  2  3  1  0     0  0
  3  4  1  0     0  0
  4  5  1  0     0  0
  1  5  1  0     0  0
  5  6  1  6     0  0
  1  7  1  1     0  0
  4  8  1  1     0  0
  8  9  1  0     0  0
 10 11  1  0     0  0
 11 12  1  0     0  0
 12 13  1  0     0  0
 13 14  2  0     0  0
 14 15  1  0     0  0
 10 15  2  0     0  0
 12 16  2  0     0  0
  2 11  1  1     0  0
 14 17  1  0     0  0
 17 18  1  0     0  0
 18 19  1  0     0  0
 18 20  2  0     0  0
 19 21  1  0     0  0
 21 22  1  0     0  0
 21 23  1  1     0  0
 22 24  1  0     0  0
 22 25  2  0     0  0
M  END
