 
 
 
 34 37  0  0  0  0  0  0  0  0999 V2000
    5.4600  -19.8100    0.0000 C   0  0  0  0  0  0  0  0  0  0  0  0
    5.4600  -18.4100    0.0000 C   0  0  0  0  0  0  0  0  0  0  0  0
    6.6500  -17.7100    0.0000 N   0  0  0  0  0  0  0  0  0  0  0  0
    7.9100  -18.4100    0.0000 C   0  0  0  0  0  0  0  0  0  0  0  0
    7.9100  -19.8100    0.0000 C   0  0  0  0  0  0  0  0  0  0  0  0
    6.6500  -20.5100    0.0000 C   0  0  0  0  0  0  0  0  0  0  0  0
    9.1000  -17.7100    0.0000 C   0  0  0  0  0  0  0  0  0  0  0  0
    9.1000  -16.3100    0.0000 C   0  0  0  0  0  0  0  0  0  0  0  0
   10.3600  -15.6100    0.0000 N   0  0  0  0  0  0  0  0  0  0  0  0
   11.5500  -16.3100    0.0000 C   0  0  0  0  0  0  0  0  0  0  0  0
   11.5500  -17.7100    0.0000 C   0  0  0  0  0  0  0  0  0  0  0  0
   10.3600  -18.4100    0.0000 N   0  0  0  0  0  0  0  0  0  0  0  0
   12.7400  -15.6100    0.0000 N   0  0  0  0  0  0  0  0  0  0  0  0
   12.7400  -18.4100    0.0000 C   0  0  0  0  0  0  0  0  0  0  0  0
   13.9300  -17.7100    0.0000 N   0  0  0  0  0  0  0  0  0  0  0  0
   12.7400  -19.8100    0.0000 O   0  0  0  0  0  0  0  0  0  0  0  0
   15.1200  -18.4100    0.0000 C   0  0  0  0  0  0  0  0  0  0  0  0
   16.3100  -17.7100    0.0000 C   0  0  0  0  0  0  0  0  0  0  0  0
   17.5700  -18.4100    0.0000 C   0  0  0  0  0  0  0  0  0  0  0  0
   17.5700  -19.8100    0.0000 C   0  0  0  0  0  0  0  0  0  0  0  0
   16.3800  -20.5100    0.0000 C   0  0  0  0  0  0  0  0  0  0  0  0
   15.1200  -19.8100    0.0000 N   0  0  0  0  0  0  0  0  0  0  0  0
   16.3100  -16.3100    0.0000 N   0  0  0  0  0  0  0  0  0  0  0  0
   15.1200  -15.6100    0.0000 C   0  0  0  0  0  0  0  0  0  0  0  0
   15.1200  -14.2100    0.0000 C   0  0  0  0  0  0  0  0  0  0  0  0
   16.3100  -13.5100    0.0000 C   0  0  0  0  0  0  0  0  0  0  0  0
   17.5700  -14.2100    0.0000 C   0  0  0  0  0  0  0  0  0  0  0  0
   17.5700  -15.6100    0.0000 C   0  0  0  0  0  0  0  0  0  0  0  0
   15.6100  -12.3200    0.0000 N   0  0  0  0  0  0  0  0  0  0  0  0
   17.0100  -12.3200    0.0000 C   0  0  0  0  0  0  0  0  0  0  0  0
    9.1000  -20.5100    0.0000 C   0  0  0  0  0  0  0  0  0  0  0  0
   10.3600  -21.2100    0.0000 F   0  0  0  0  0  0  0  0  0  0  0  0
    8.4000  -21.7000    0.0000 F   0  0  0  0  0  0  0  0  0  0  0  0
    9.8000  -19.3200    0.0000 F   0  0  0  0  0  0  0  0  0  0  0  0
  1  2  2  0     0  0
  2  3  1  0     0  0
  3  4  2  0     0  0
  4  5  1  0     0  0
  5  6  2  0     0  0
  1  6  1  0     0  0
  4  7  1  0     0  0
  7  8  2  0     0  0
  8  9  1  0     0  0
  9 10  2  0     0  0
 10 11  1  0     0  0
 11 12  2  0     0  0
  7 12  1  0     0  0
 10 13  1  0     0  0
 11 14  1  0     0  0
 14 15  1  0     0  0
 14 16  2  0     0  0
 15 17  1  0     0  0
 17 18  2  0     0  0
 18 19  1  0     0  0
 19 20  2  0     0  0
 20 21  1  0     0  0
 21 22  2  0     0  0
 17 22  1  0     0  0
 18 23  1  0     0  0
 23 24  1  0     0  0
 24 25  1  0     0  0
 25 26  1  0     0  0
 26 27  1  0     0  0
 27 28  1  0     0  0
 23 28  1  0     0  0
 26 29  1  0     0  0
 26 30  1  0     0  0
  5 31  1  0     0  0
 31 32  1  0     0  0
 31 33  1  0     0  0
 31 34  1  0     0  0
M  END
