 
     RDKit          2D

 93101  0  0  1  0  0  0  0  0999 V2000
   17.0800  -17.9900    0.0000 C   0  0  0  0  0  0  0  0  0  0  0  0
   17.0800  -19.3200    0.0000 C   0  0  0  0  0  0  0  0  0  0  0  0
   18.2700  -20.0200    0.0000 C   0  0  0  0  0  0  0  0  0  0  0  0
   19.4600  -19.3200    0.0000 C   0  0  0  0  0  0  0  0  0  0  0  0
   19.4600  -17.9900    0.0000 C   0  0  0  0  0  0  0  0  0  0  0  0
   18.2700  -17.2900    0.0000 C   0  0  0  0  0  0  0  0  0  0  0  0
   18.2700  -21.4200    0.0000 F   0  0  0  0  0  0  0  0  0  0  0  0
   15.8900  -20.0200    0.0000 O   0  0  0  0  0  0  0  0  0  0  0  0
   14.7000  -19.3900    0.0000 C   0  0  0  0  0  0  0  0  0  0  0  0
   20.7200  -20.0200    0.0000 C   0  0  0  0  0  0  0  0  0  0  0  0
   20.7200  -21.4200    0.0000 C   0  0  0  0  0  0  0  0  0  0  0  0
   21.9100  -22.1200    0.0000 N   0  0  0  0  0  0  0  0  0  0  0  0
   23.1000  -21.4200    0.0000 C   0  0  0  0  0  0  0  0  0  0  0  0
   23.1000  -20.0200    0.0000 N   0  0  0  0  0  0  0  0  0  0  0  0
   21.9100  -19.3900    0.0000 C   0  0  0  0  0  0  0  0  0  0  0  0
   21.9100  -17.9900    0.0000 O   0  0  0  0  0  0  0  0  0  0  0  0
   19.5300  -22.1200    0.0000 C   0  0  0  0  0  0  0  0  0  0  0  0
   21.9100  -24.4300    0.0000 C   0  0  0  0  0  0  0  0  0  0  0  0
   24.2900  -19.3200    0.0000 C   0  0  0  0  0  0  0  0  0  0  0  0
   24.2900  -22.1200    0.0000 O   0  0  0  0  0  0  0  0  0  0  0  0
   23.1000  -25.1300    0.0000 C   0  0  0  0  0  0  0  0  0  0  0  0
   23.1000  -26.4600    0.0000 C   0  0  0  0  0  0  0  0  0  0  0  0
   24.3600  -27.1600    0.0000 C   0  0  0  0  0  0  0  0  0  0  0  0
   25.5500  -26.4600    0.0000 C   0  0  0  0  0  0  0  0  0  0  0  0
   25.5500  -25.1300    0.0000 C   0  0  0  0  0  0  0  0  0  0  0  0
   24.3600  -24.4300    0.0000 C   0  0  0  0  0  0  0  0  0  0  0  0
   21.9100  -27.1600    0.0000 C   0  0  0  0  0  0  0  0  0  0  0  0
   20.7200  -27.8600    0.0000 F   0  0  0  0  0  0  0  0  0  0  0  0
   22.6100  -28.3500    0.0000 F   0  0  0  0  0  0  0  0  0  0  0  0
   21.2100  -25.9700    0.0000 F   0  0  0  0  0  0  0  0  0  0  0  0
   24.3600  -23.0300    0.0000 F   0  0  0  0  0  0  0  0  0  0  0  0
   25.4800  -20.0200    0.0000 C   0  0  0  0  0  0  0  0  0  0  0  0
   26.6700  -19.3200    0.0000 N   0  0  0  0  0  0  0  0  0  0  0  0
   27.8600  -20.0200    0.0000 C   0  0  0  0  0  0  0  0  0  0  0  0
   29.0500  -19.3900    0.0000 C   0  0  0  0  0  0  0  0  0  0  0  0
   30.1700  -20.0200    0.0000 C   0  0  0  0  0  0  0  0  0  0  0  0
   31.3600  -19.3900    0.0000 C   0  0  0  0  0  0  0  0  0  0  0  0
   32.5500  -20.0200    0.0000 O   0  0  0  0  0  0  0  0  0  0  0  0
   31.3600  -17.9900    0.0000 O   0  0  0  0  0  0  0  0  0  0  0  0
   26.1800  -21.2100    0.0000 C   0  0  0  0  0  0  0  0  0  0  0  0
   25.4800  -22.4000    0.0000 C   0  0  0  0  0  0  0  0  0  0  0  0
   26.1800  -23.6600    0.0000 C   0  0  0  0  0  0  0  0  0  0  0  0
   27.5800  -23.6600    0.0000 C   0  0  0  0  0  0  0  0  0  0  0  0
   28.2800  -22.4000    0.0000 C   0  0  0  0  0  0  0  0  0  0  0  0
   27.5800  -21.2100    0.0000 C   0  0  0  0  0  0  0  0  0  0  0  0
   32.0008  -22.2762    0.0000 Na  0  0  0  0  0 15  0  0  0  0  0  0
   20.4641  -16.5790    0.0000 C   0  0  0  0  0  0  0  0  0  0  0  0
   20.4525  -15.2599    0.0000 C   0  0  0  0  0  0  0  0  0  0  0  0
   19.3184  -17.2675    0.0000 C   0  0  0  0  0  0  0  0  0  0  0  0
   22.7610  -16.5558    0.0000 C   0  0  0  0  0  0  0  0  0  0  0  0
   21.5923  -14.5829    0.0000 C   0  0  0  0  0  0  0  0  0  0  0  0
   19.2897  -14.6060    0.0000 C   0  0  0  0  0  0  0  0  0  0  0  0
   20.4069  -13.9233    0.0000 C   0  0  0  0  0  0  0  0  0  0  0  0
   18.1671  -16.6137    0.0000 C   0  0  0  0  0  0  0  0  0  0  0  0
   19.3474  -18.5982    0.0000 C   0  0  0  0  0  0  0  0  0  0  0  0
   22.7435  -15.2310    0.0000 C   0  0  0  0  0  0  0  0  0  0  0  0
   22.6337  -13.9233    0.0000 C   0  0  0  0  0  0  0  0  0  0  0  0
   18.2198  -15.2887    0.0000 C   0  0  0  0  0  0  0  0  0  0  0  0
   17.0216  -17.3022    0.0000 C   0  0  0  0  0  0  0  0  0  0  0  0
   18.2020  -19.2926    0.0000 C   0  0  0  0  0  0  0  0  0  0  0  0
   23.6808  -13.2580    0.0000 C   0  0  0  0  0  0  0  0  0  0  0  0
   17.0390  -18.6328    0.0000 C   0  0  0  0  0  0  0  0  0  0  0  0
   15.8414  -16.6542    0.0000 C   0  0  0  0  0  0  0  0  0  0  0  0
   15.8992  -19.3387    0.0000 C   0  0  0  0  0  0  0  0  0  0  0  0
   14.6901  -17.3484    0.0000 C   0  0  0  0  0  0  0  0  0  0  0  0
   14.7190  -18.6967    0.0000 C   0  0  0  0  0  0  0  0  0  0  0  0
   13.5735  -19.3908    0.0000 O   0  0  0  0  0  0  0  0  0  0  0  0
   21.5923  -12.9182    0.0000 O   0  0  0  0  0  0  0  0  0  0  0  0
   26.8820  -17.0674    0.0000 C   0  0  0  0  0  0  0  0  0  0  0  0
   28.0682  -16.3895    0.0000 C   0  0  0  0  0  0  0  0  0  0  0  0
   26.8705  -18.4405    0.0000 C   0  0  0  0  0  0  0  0  0  0  0  0
   25.7075  -16.3836    0.0000 C   0  0  0  0  0  0  0  0  0  0  0  0
   26.8762  -15.7000    0.0000 C   0  0  0  0  0  0  0  0  0  0  0  0
   29.2545  -17.0791    0.0000 C   0  0  0  0  0  0  0  0  0  0  0  0
   28.0567  -15.0162    0.0000 O   0  0  0  0  0  0  0  0  0  0  0  0
   29.2487  -15.7000    0.0000 C   0  0  0  0  0  0  0  0  0  0  0  0
   25.6842  -19.1184    0.0000 C   0  0  0  0  0  0  0  0  0  0  0  0
   29.2429  -18.3822    0.0000 C   0  0  0  0  0  0  0  0  0  0  0  0
   24.5155  -17.0557    0.0000 C   0  0  0  0  0  0  0  0  0  0  0  0
   28.0567  -13.6548    0.0000 C   0  0  0  0  0  0  0  0  0  0  0  0
   30.4292  -15.0105    0.0000 C   0  0  0  0  0  0  0  0  0  0  0  0
   24.5038  -18.4231    0.0000 C   0  0  0  0  0  0  0  0  0  0  0  0
   25.6842  -20.4917    0.0000 C   0  0  0  0  0  0  0  0  0  0  0  0
   29.2429  -12.9710    0.0000 C   0  0  0  0  0  0  0  0  0  0  0  0
   26.8762  -12.9769    0.0000 O   0  0  0  0  0  0  0  0  0  0  0  0
   23.3175  -19.1009    0.0000 C   0  0  0  0  0  0  0  0  0  0  0  0
   24.4921  -21.1696    0.0000 C   0  0  0  0  0  0  0  0  0  0  0  0
   23.3118  -20.4800    0.0000 C   0  0  0  0  0  0  0  0  0  0  0  0
   22.1371  -18.4172    0.0000 C   0  0  0  0  0  0  0  0  0  0  0  0
   22.1371  -21.1636    0.0000 C   0  0  0  0  0  0  0  0  0  0  0  0
   20.9508  -19.1009    0.0000 C   0  0  0  0  0  0  0  0  0  0  0  0
   20.9508  -20.4800    0.0000 C   0  0  0  0  0  0  0  0  0  0  0  0
   19.7588  -21.1579    0.0000 O   0  0  0  0  0  0  0  0  0  0  0  0
  1  2  2  0
  2  3  1  0
  3  4  2  0
  4  5  1  0
  5  6  2  0
  1  6  1  0
  3  7  1  0
  2  8  1  0
  8  9  1  0
  4 10  1  0
 10 11  2  0
 11 12  1  0
 12 13  1  0
 13 14  1  0
 14 15  1  0
 10 15  1  0
 15 16  2  0
 11 17  1  0
 12 18  1  0
 14 19  1  0
 13 20  2  0
 18 21  1  0
 21 22  2  0
 22 23  1  0
 23 24  2  0
 24 25  1  0
 25 26  2  0
 21 26  1  0
 22 27  1  0
 27 28  1  0
 27 29  1  0
 27 30  1  0
 26 31  1  0
 32 19  1  6
 32 33  1  0
 33 34  1  0
 34 35  1  0
 35 36  1  0
 36 37  1  0
 37 38  1  0
 37 39  2  0
 32 40  1  0
 40 41  2  0
 41 42  1  0
 42 43  2  0
 43 44  1  0
 44 45  2  0
 40 45  1  0
 47 48  1  0
 47 49  1  0
 47 50  1  1
 48 51  1  0
 48 52  1  0
 48 53  1  1
 49 54  1  0
 49 55  1  6
 50 56  1  0
 51 57  1  0
 52 58  1  0
 54 59  1  0
 55 60  1  0
 57 61  3  0
 59 62  2  0
 59 63  1  0
 62 64  1  0
 63 65  2  0
 64 66  2  0
 66 67  1  0
 51 56  1  0
 54 58  1  1
 60 62  1  0
 65 66  1  0
 51 68  1  1
 69 70  1  0
 69 71  1  0
 69 72  1  0
 69 73  1  1
 70 74  1  0
 70 75  1  0
 70 76  1  6
 71 77  1  0
 71 78  1  1
 72 79  1  0
 75 80  1  0
 76 81  3  0
 77 82  1  0
 77 83  1  6
 80 84  1  0
 80 85  2  0
 82 86  1  0
 83 87  1  0
 86 88  1  0
 86 89  1  6
 88 90  2  0
 89 91  1  0
 90 92  1  0
 92 93  2  0
 74 78  1  0
 82 79  1  1
 87 88  1  0
 91 92  1  0
M  CHG  2  38  -1  46   1
M  END
