 
 
 
 22 18  0  0  1  0  0  0  0  0999 V2000
   13.7642  -15.5623    0.0000 C   0  0  0  0  0  0  0  0  0  0  0  0
   13.7642  -16.9572    0.0000 C   0  0  0  0  0  0  0  0  0  0  0  0
   14.9499  -17.6546    0.0000 C   0  0  0  0  0  0  0  0  0  0  0  0
   16.2053  -16.9572    0.0000 C   0  0  0  0  0  0  0  0  0  0  0  0
   16.2053  -15.5623    0.0000 C   0  0  0  0  0  0  0  0  0  0  0  0
   14.9499  -14.8648    0.0000 C   0  0  0  0  0  0  0  0  0  0  0  0
   17.5304  -17.3756    0.0000 N   0  0  0  0  0  0  0  0  0  0  0  0
   17.5304  -15.1438    0.0000 N   0  0  0  0  0  0  0  0  0  0  0  0
   16.2053  -18.3521    0.0000 H   0  0  0  0  0  0  0  0  0  0  0  0
   16.2053  -14.1674    0.0000 H   0  0  0  0  0  0  0  0  0  0  0  0
   20.7387  -17.4454    0.0000 O   0  5  0  0  0  0  0  0  0  0  0  0
   22.1336  -17.4454    0.0000 P   0  0  0  0  0  0  0  0  0  0  0  0
   22.8310  -16.1900    0.0000 O   0  0  0  0  0  0  0  0  0  0  0  0
   22.0638  -15.0043    0.0000 P   0  0  0  0  0  0  0  0  0  0  0  0
   20.6689  -15.0043    0.0000 O   0  5  0  0  0  0  0  0  0  0  0  0
   23.5285  -17.4454    0.0000 O   0  0  0  0  0  0  0  0  0  0  0  0
   22.0638  -13.6094    0.0000 O   0  0  0  0  0  0  0  0  0  0  0  0
   23.2718  -14.3069    0.0000 O   0  5  0  0  0  0  0  0  0  0  0  0
   22.1336  -18.8403    0.0000 O   0  5  0  0  0  0  0  0  0  0  0  0
   18.9253  -16.3295    0.0000 Pt  0  2  0  0  0  0  0  0  0  0  0  0
   19.2500  -20.0900    0.0000 H   0  3  0  0  0  0  0  0  0  0  0  0
   19.1800  -12.6700    0.0000 H   0  3  0  0  0  0  0  0  0  0  0  0
  1  2  1  0     0  0
  2  3  1  0     0  0
  3  4  1  0     0  0
  4  5  1  0     0  0
  5  6  1  0     0  0
  1  6  1  0     0  0
  4  7  1  0     0  0
  5  8  1  0     0  0
  4  9  1  1     0  0
  5 10  1  6     0  0
 11 12  1  0     0  0
 12 13  1  0     0  0
 13 14  1  0     0  0
 14 15  1  0     0  0
 12 16  2  0     0  0
 14 17  2  0     0  0
 14 18  1  0     0  0
 12 19  1  0     0  0
M  CHG  7  11  -1  15  -1  18  -1  19  -1  20   2  21   1  22   1
M  END
