 
 
 
 31 31  0  0  1  0  0  0  0  0999 V2000
   19.2500  -18.9700    0.0000 C   0  0  0  0  0  0  0  0  0  0  0  0
   18.0600  -19.6700    0.0000 C   0  0  0  0  0  0  0  0  0  0  0  0
   20.4400  -19.6700    0.0000 N   0  0  0  0  0  0  0  0  0  0  0  0
   21.7000  -18.9700    0.0000 C   0  0  0  0  0  0  0  0  0  0  0  0
   22.8900  -19.6700    0.0000 N   0  0  0  0  0  0  0  0  0  0  0  0
   21.7000  -17.5700    0.0000 O   0  0  0  0  0  0  0  0  0  0  0  0
   24.0800  -18.9700    0.0000 C   0  0  0  0  0  0  0  0  0  0  0  0
   25.2700  -19.6700    0.0000 C   0  0  0  0  0  0  0  0  0  0  0  0
   26.4600  -18.9700    0.0000 C   0  0  0  0  0  0  0  0  0  0  0  0
   24.0800  -17.5700    0.0000 C   0  0  0  0  0  0  0  0  0  0  0  0
   25.2700  -16.8700    0.0000 O   0  0  0  0  0  0  0  0  0  0  0  0
   27.6500  -19.6700    0.0000 C   0  0  0  0  0  0  0  0  0  0  0  0
   28.8400  -18.9700    0.0000 O   0  0  0  0  0  0  0  0  0  0  0  0
   27.6500  -21.0700    0.0000 O   0  0  0  0  0  0  0  0  0  0  0  0
   22.8900  -16.8700    0.0000 O   0  0  0  0  0  0  0  0  0  0  0  0
   19.2500  -17.5700    0.0000 C   0  0  0  0  0  0  0  0  0  0  0  0
   20.4400  -16.8700    0.0000 O   0  0  0  0  0  0  0  0  0  0  0  0
   18.0600  -16.8700    0.0000 O   0  0  0  0  0  0  0  0  0  0  0  0
   16.8700  -18.9700    0.0000 C   0  0  0  0  0  0  0  0  0  0  0  0
   15.6800  -19.6700    0.0000 C   0  0  0  0  0  0  0  0  0  0  0  0
   14.4900  -18.9700    0.0000 C   0  0  0  0  0  0  0  0  0  0  0  0
   13.3000  -19.6700    0.0000 N   0  0  0  0  0  0  0  0  0  0  0  0
   12.1100  -18.9700    0.0000 C   0  0  0  0  0  0  0  0  0  0  0  0
   10.9200  -19.6700    0.0000 C   0  0  0  0  0  0  0  0  0  0  0  0
   12.1100  -17.5700    0.0000 O   0  0  0  0  0  0  0  0  0  0  0  0
    9.7300  -18.9700    0.0000 C   0  0  0  0  0  0  0  0  0  0  0  0
    8.4700  -19.6700    0.0000 C   0  0  0  0  0  0  0  0  0  0  0  0
    8.4700  -21.0700    0.0000 C   0  0  0  0  0  0  0  0  0  0  0  0
    9.6600  -21.7700    0.0000 N   0  0  0  0  0  0  0  0  0  0  0  0
   10.9200  -21.0700    0.0000 C   0  0  0  0  0  0  0  0  0  0  0  0
    7.2800  -21.7700    0.0000 F  -1  0  0  0  0  0  0  0  0  0  0  0
  1  2  1  0     0  0
  1  3  1  0     0  0
  3  4  1  0     0  0
  4  5  1  0     0  0
  4  6  2  0     0  0
  7  5  1  0     0  0
  7  8  1  0     0  0
  8  9  1  0     0  0
  7 10  1  1     0  0
 10 11  1  0     0  0
  9 12  1  0     0  0
 12 13  1  0     0  0
 12 14  2  0     0  0
 10 15  2  0     0  0
  1 16  1  6     0  0
 16 17  2  0     0  0
 16 18  1  0     0  0
 19  2  1  0     0  0
 19 20  1  0     0  0
 20 21  1  0     0  0
 21 22  1  0     0  0
 22 23  1  0     0  0
 23 24  1  0     0  0
 23 25  2  0     0  0
 24 26  2  0     0  0
 26 27  1  0     0  0
 27 28  2  0     0  0
 28 29  1  0     0  0
 29 30  2  0     0  0
 24 30  1  0     0  0
 28 31  1  0     0  0
M  ISO  1  31  18
M  END
