 
 
 
 67 72  0  0  1  0  0  0  0  0999 V2000
   24.1006  -13.5215    0.0000 C   0  0  0  0  0  0  0  0  0  0  0  0
   22.9096  -14.2221    0.0000 C   0  0  0  0  0  0  0  0  0  0  0  0
   22.9096  -15.6233    0.0000 C   0  0  0  0  0  0  0  0  0  0  0  0
   24.1706  -16.3239    0.0000 C   0  0  0  0  0  0  0  0  0  0  0  0
   25.3616  -15.6233    0.0000 C   0  0  0  0  0  0  0  0  0  0  0  0
   25.3616  -14.1521    0.0000 C   0  0  0  0  0  0  0  0  0  0  0  0
   21.7185  -16.3239    0.0000 C   0  0  0  0  0  0  0  0  0  0  0  0
   20.5275  -15.6934    0.0000 C   0  0  0  0  0  0  0  0  0  0  0  0
   19.2664  -16.3940    0.0000 C   0  0  0  0  0  0  0  0  0  0  0  0
   18.0754  -15.7635    0.0000 N   0  0  0  0  0  0  0  0  0  0  0  0
   16.8844  -16.4640    0.0000 C   0  0  0  0  0  0  0  0  0  0  0  0
   16.8844  -17.8652    0.0000 C   0  0  0  0  0  0  0  0  0  0  0  0
   18.0754  -18.4958    0.0000 C   0  0  0  0  0  0  0  0  0  0  0  0
   19.2664  -17.7952    0.0000 C   0  0  0  0  0  0  0  0  0  0  0  0
   20.4575  -14.2922    0.0000 N   0  0  0  0  0  0  0  0  0  0  0  0
   19.2664  -13.5916    0.0000 C   0  0  0  0  0  0  0  0  0  0  0  0
   19.2664  -12.2605    0.0000 C   0  0  0  0  0  0  0  0  0  0  0  0
   18.0754  -14.3623    0.0000 O   0  0  0  0  0  0  0  0  0  0  0  0
   15.6233  -15.7635    0.0000 C   0  0  0  0  0  0  0  0  0  0  0  0
   14.4323  -15.0629    0.0000 C   0  0  0  0  0  0  0  0  0  0  0  0
   13.1712  -14.3623    0.0000 C   0  0  0  0  0  0  0  0  0  0  0  0
   11.9802  -13.7317    0.0000 S   0  0  0  0  0  0  0  0  0  0  0  0
   13.9419  -13.1712    0.0000 C   0  0  0  0  0  0  0  0  0  0  0  0
   12.5407  -15.6233    0.0000 C   0  0  0  0  0  0  0  0  0  0  0  0
   10.7191  -13.0311    0.0000 C   0  0  0  0  0  0  0  0  0  0  0  0
   12.6808  -12.4706    0.0000 O   0  0  0  0  0  0  0  0  0  0  0  0
   11.2796  -14.9227    0.0000 O   0  0  0  0  0  0  0  0  0  0  0  0
   20.5275  -18.4257    0.0000 C   0  0  0  0  0  0  0  0  0  0  0  0
   20.5275  -19.8269    0.0000 C   0  0  0  0  0  0  0  0  0  0  0  0
   21.7886  -20.5275    0.0000 C   0  0  0  0  0  0  0  0  0  0  0  0
   22.9796  -19.8269    0.0000 C   0  0  0  0  0  0  0  0  0  0  0  0
   22.9796  -18.4257    0.0000 C   0  0  0  0  0  0  0  0  0  0  0  0
   21.7185  -17.7251    0.0000 C   0  0  0  0  0  0  0  0  0  0  0  0
   24.1706  -20.5275    0.0000 Cl  0  0  0  0  0  0  0  0  0  0  0  0
   19.5467  -20.8078    0.0000 N   0  0  0  0  0  0  0  0  0  0  0  0
   20.0371  -22.0688    0.0000 N   0  0  0  0  0  0  0  0  0  0  0  0
   21.5084  -21.9287    0.0000 C   0  0  0  0  0  0  0  0  0  0  0  0
   18.2155  -20.5976    0.0000 C   0  0  0  0  0  0  0  0  0  0  0  0
   17.2347  -21.6485    0.0000 C   0  0  0  0  0  0  0  0  0  0  0  0
   16.3239  -22.6293    0.0000 F   0  0  0  0  0  0  0  0  0  0  0  0
   16.2539  -20.6676    0.0000 F   0  0  0  0  0  0  0  0  0  0  0  0
   18.2155  -22.5593    0.0000 F   0  0  0  0  0  0  0  0  0  0  0  0
   22.4892  -22.9796    0.0000 N   0  5  0  0  0  0  0  0  0  0  0  0
   22.0688  -24.3107    0.0000 S   0  0  0  0  0  0  0  0  0  0  0  0
   21.3682  -25.5018    0.0000 C   0  0  0  0  0  0  0  0  0  0  0  0
   20.8778  -23.6802    0.0000 O   0  0  0  0  0  0  0  0  0  0  0  0
   23.2598  -25.0113    0.0000 O   0  0  0  0  0  0  0  0  0  0  0  0
   26.6227  -16.2539    0.0000 F   0  0  0  0  0  0  0  0  0  0  0  0
   24.1006  -12.1203    0.0000 F   0  0  0  0  0  0  0  0  0  0  0  0
   18.0754  -11.5599    0.0000 N   0  0  0  0  0  0  0  0  0  0  0  0
   18.0754  -10.1587    0.0000 C   0  0  0  0  0  0  0  0  0  0  0  0
   16.7443   -9.7383    0.0000 C   0  0  0  0  0  0  0  0  0  0  0  0
   15.9036  -10.8593    0.0000 C   0  0  0  0  0  0  0  0  0  0  0  0
   16.6742  -11.9802    0.0000 N   0  0  0  0  0  0  0  0  0  0  0  0
   18.9161   -9.0377    0.0000 C   0  0  0  0  0  0  0  0  0  0  0  0
   18.0754   -7.8467    0.0000 C   0  0  0  0  0  0  0  0  0  0  0  0
   16.7443   -8.3371    0.0000 C   0  0  0  0  0  0  0  0  0  0  0  0
   20.3173   -9.0377    0.0000 F   0  0  0  0  0  0  0  0  0  0  0  0
   19.5467  -10.2988    0.0000 F   0  0  0  0  0  0  0  0  0  0  0  0
   17.0245   -6.9359    0.0000 C   0  0  0  0  0  0  0  0  0  0  0  0
   14.5024  -10.8593    0.0000 C   0  0  0  0  0  0  0  0  0  0  0  0
   13.1012  -10.8593    0.0000 F   0  0  0  0  0  0  0  0  0  0  0  0
   14.5024   -9.4581    0.0000 F   0  0  0  0  0  0  0  0  0  0  0  0
   14.5024  -12.2605    0.0000 F   0  0  0  0  0  0  0  0  0  0  0  0
   15.4132   -8.6874    0.0000 H   0  0  0  0  0  0  0  0  0  0  0  0
   19.4766   -7.4964    0.0000 H   0  0  0  0  0  0  0  0  0  0  0  0
   25.7600  -22.8900    0.0000 Na  0  3  0  0  0  0  0  0  0  0  0  0
  1  2  2  0     0  0
  2  3  1  0     0  0
  3  4  2  0     0  0
  4  5  1  0     0  0
  5  6  2  0     0  0
  1  6  1  0     0  0
  3  7  1  0     0  0
  7  8  1  0     0  0
  8  9  1  0     0  0
  9 10  1  0     0  0
 10 11  2  0     0  0
 11 12  1  0     0  0
 12 13  2  0     0  0
 13 14  1  0     0  0
  9 14  2  0     0  0
  8 15  1  1     0  0
 15 16  1  0     0  0
 16 17  1  0     0  0
 16 18  2  0     0  0
 11 19  1  0     0  0
 19 20  3  0     0  0
 20 21  1  0     0  0
 21 22  1  0     0  0
 21 23  1  0     0  0
 21 24  1  0     0  0
 22 25  1  0     0  0
 22 26  2  0     0  0
 22 27  2  0     0  0
 14 28  1  0     0  0
 28 29  1  0     0  0
 29 30  2  0     0  0
 30 31  1  0     0  0
 31 32  2  0     0  0
 32 33  1  0     0  0
 28 33  2  0     0  0
 31 34  1  0     0  0
 29 35  1  0     0  0
 35 36  1  0     0  0
 36 37  2  0     0  0
 30 37  1  0     0  0
 35 38  1  0     0  0
 38 39  1  0     0  0
 39 40  1  0     0  0
 39 41  1  0     0  0
 39 42  1  0     0  0
 37 43  1  0     0  0
 43 44  1  0     0  0
 44 45  1  0     0  0
 44 46  2  0     0  0
 44 47  2  0     0  0
  5 48  1  0     0  0
  1 49  1  0     0  0
 17 50  1  0     0  0
 50 51  1  0     0  0
 51 52  2  0     0  0
 52 53  1  0     0  0
 53 54  2  0     0  0
 50 54  1  0     0  0
 51 55  1  0     0  0
 55 56  1  0     0  0
 56 57  1  0     0  0
 52 57  1  0     0  0
 55 58  1  0     0  0
 55 59  1  0     0  0
 56 60  1  0     0  0
 60 57  1  0     0  0
 53 61  1  0     0  0
 61 62  1  0     0  0
 61 63  1  0     0  0
 61 64  1  0     0  0
 57 65  1  6     0  0
 56 66  1  6     0  0
M  CHG  2  43  -1  67   1
M  END
