 
 
 
 24 28  0  0  1  0  0  0  0  0999 V2000
   13.0900  -16.5200    0.0000 N   0  0  0  0  0  0  0  0  0  0  0  0
   13.0900  -17.9200    0.0000 C   0  0  0  0  0  0  0  0  0  0  0  0
   14.3024  -18.6200    0.0000 N   0  0  0  0  0  0  0  0  0  0  0  0
   15.5149  -17.9200    0.0000 C   0  0  0  0  0  0  0  0  0  0  0  0
   15.5149  -16.5200    0.0000 C   0  0  0  0  0  0  0  0  0  0  0  0
   14.3024  -15.8200    0.0000 C   0  0  0  0  0  0  0  0  0  0  0  0
   16.8464  -18.3526    0.0000 C   0  0  0  0  0  0  0  0  0  0  0  0
   17.6693  -17.2200    0.0000 C   0  0  0  0  0  0  0  0  0  0  0  0
   16.8464  -16.0874    0.0000 S   0  0  0  0  0  0  0  0  0  0  0  0
   19.0400  -17.2200    0.0000 C   0  0  0  0  0  0  0  0  0  0  0  0
   19.8629  -18.3526    0.0000 C   0  0  0  0  0  0  0  0  0  0  0  0
   21.1944  -17.9200    0.0000 N   0  0  0  0  0  0  0  0  0  0  0  0
   21.1944  -16.5200    0.0000 N   0  0  0  0  0  0  0  0  0  0  0  0
   19.8629  -16.0874    0.0000 C   0  0  0  0  0  0  0  0  0  0  0  0
   19.4358  -14.7723    0.0000 C   0  0  0  0  0  0  0  0  0  0  0  0
   14.3024  -14.4202    0.0000 O   0  0  0  0  0  0  0  0  0  0  0  0
   11.8776  -18.6200    0.0000 C   0  0  0  0  0  0  0  0  0  0  0  0
   10.6821  -17.9296    0.0000 N   0  0  0  0  0  0  0  0  0  0  0  0
    9.4696  -18.6295    0.0000 C   0  0  0  0  0  0  0  0  0  0  0  0
    9.4694  -20.0295    0.0000 C   0  0  0  0  0  0  0  0  0  0  0  0
   10.6649  -20.7199    0.0000 C   0  0  0  0  0  0  0  0  0  0  0  0
   11.8774  -20.0200    0.0000 C   0  0  0  0  0  0  0  0  0  0  0  0
   10.3197  -19.2819    0.0000 C   0  0  0  0  0  0  0  0  0  0  0  0
   11.0272  -19.3676    0.0000 C   0  0  0  0  0  0  0  0  0  0  0  0
  1  2  2  0     0  0
  2  3  1  0     0  0
  3  4  1  0     0  0
  4  5  2  0     0  0
  5  6  1  0     0  0
  1  6  1  0     0  0
  4  7  1  0     0  0
  7  8  2  0     0  0
  8  9  1  0     0  0
  5  9  1  0     0  0
  8 10  1  0     0  0
 10 11  2  0     0  0
 11 12  1  0     0  0
 12 13  1  0     0  0
 13 14  2  0     0  0
 10 14  1  0     0  0
 14 15  1  0     0  0
  6 16  2  0     0  0
 17  2  1  6     0  0
 17 18  1  0     0  0
 18 19  1  0     0  0
 19 20  1  0     0  0
 20 21  1  0     0  0
 21 22  1  0     0  0
 17 22  1  0     0  0
 18 23  1  0     0  0
 21 24  1  0     0  0
 24 23  1  0     0  0
M  END
