 
 
 
 37 40  0  0  1  0  0  0  0  0999 V2000
   10.3600  -17.7800    0.0000 C   0  0  0  0  0  0  0  0  0  0  0  0
   10.3600  -19.1800    0.0000 C   0  0  0  0  0  0  0  0  0  0  0  0
   11.5724  -19.8800    0.0000 C   0  0  0  0  0  0  0  0  0  0  0  0
   12.7849  -19.1800    0.0000 C   0  0  0  0  0  0  0  0  0  0  0  0
   12.7849  -17.7800    0.0000 C   0  0  0  0  0  0  0  0  0  0  0  0
   11.5724  -17.0800    0.0000 C   0  0  0  0  0  0  0  0  0  0  0  0
   13.9973  -19.8800    0.0000 C   0  0  0  0  0  0  0  0  0  0  0  0
   15.2097  -19.1800    0.0000 C   0  0  0  0  0  0  0  0  0  0  0  0
   15.2097  -17.7800    0.0000 C   0  0  0  0  0  0  0  0  0  0  0  0
   13.9973  -17.0800    0.0000 C   0  0  0  0  0  0  0  0  0  0  0  0
   16.4222  -17.0800    0.0000 C   0  0  0  0  0  0  0  0  0  0  0  0
   16.4222  -15.6800    0.0000 C   0  0  0  0  0  0  0  0  0  0  0  0
   15.2097  -14.9800    0.0000 C   0  0  0  0  0  0  0  0  0  0  0  0
   13.9973  -15.6800    0.0000 C   0  0  0  0  0  0  0  0  0  0  0  0
   18.8470  -17.0800    0.0000 C   0  0  0  0  0  0  0  0  0  0  0  0
   18.8470  -15.6800    0.0000 C   0  0  0  0  0  0  0  0  0  0  0  0
   17.6346  -14.9800    0.0000 C   0  0  0  0  0  0  0  0  0  0  0  0
    9.1476  -19.8800    0.0000 O   0  0  0  0  0  0  0  0  0  0  0  0
    7.9521  -19.1896    0.0000 S   0  0  0  0  0  0  0  0  0  0  0  0
    6.7396  -18.4896    0.0000 O   0  0  0  0  0  0  0  0  0  0  0  0
    8.6521  -17.9772    0.0000 O   0  0  0  0  0  0  0  0  0  0  0  0
    7.2521  -20.4020    0.0000 O   0  0  0  0  0  0  0  0  0  0  0  0
   12.7849  -16.3800    0.0000 C   0  0  0  0  0  0  0  0  0  0  0  0
   15.2097  -16.3800    0.0000 H   0  0  0  0  0  0  0  0  0  0  0  0
   16.4222  -14.2800    0.0000 C   0  0  0  0  0  0  0  0  0  0  0  0
   17.6346  -13.5800    0.0000 C   0  0  0  0  0  0  0  0  0  0  0  0
   18.8511  -12.8777    0.0000 C   0  0  0  0  0  0  0  0  0  0  0  0
   20.0486  -13.5692    0.0000 C   0  0  0  0  0  0  0  0  0  0  0  0
   21.2349  -12.8843    0.0000 C   0  0  0  0  0  0  0  0  0  0  0  0
   22.4267  -13.5726    0.0000 C   0  0  0  0  0  0  0  0  0  0  0  0
   23.6159  -12.8861    0.0000 C   0  0  0  0  0  0  0  0  0  0  0  0
   22.4267  -14.9797    0.0000 C   0  0  0  0  0  0  0  0  0  0  0  0
   23.6220  -14.2631    0.0000 O   0  0  0  0  0  0  0  0  0  0  0  0
   16.4262  -12.8823    0.0000 C   0  0  0  0  0  0  0  0  0  0  0  0
   16.4222  -18.4800    0.0000 H   0  0  0  0  0  0  0  0  0  0  0  0
   13.9973  -18.4800    0.0000 H   0  0  0  0  0  0  0  0  0  0  0  0
   18.8470  -14.2800    0.0000 H   0  0  0  0  0  0  0  0  0  0  0  0
  1  2  1  0     0  0
  2  3  1  0     0  0
  3  4  1  0     0  0
  4  5  1  0     0  0
  5  6  1  0     0  0
  1  6  1  0     0  0
  4  7  2  0     0  0
  7  8  1  0     0  0
  8  9  1  0     0  0
  9 10  1  0     0  0
  5 10  1  0     0  0
  9 11  1  0     0  0
 11 12  1  0     0  0
 12 13  1  0     0  0
 13 14  1  0     0  0
 10 14  1  0     0  0
 11 15  1  0     0  0
 15 16  1  0     0  0
 16 17  1  0     0  0
 12 17  1  0     0  0
  2 18  1  1     0  0
 18 19  1  0     0  0
 19 20  1  0     0  0
 19 21  2  0     0  0
 19 22  2  0     0  0
  5 23  1  1     0  0
  9 24  1  1     0  0
 12 25  1  1     0  0
 17 26  1  0     0  0
 26 27  1  0     0  0
 27 28  1  0     0  0
 28 29  1  0     0  0
 29 30  1  0     0  0
 30 31  1  0     0  0
 30 32  1  0     0  0
 30 33  1  0     0  0
 26 34  1  6     0  0
 11 35  1  6     0  0
 10 36  1  6     0  0
 17 37  1  6     0  0
M  END
