 
 
 
 33 36  0  0  0  0  0  0  0  0999 V2000
   25.3400  -15.1200    0.0000 C   0  0  0  0  0  0  0  0  0  0  0  0
   26.5524  -15.8200    0.0000 O   0  0  0  0  0  0  0  0  0  0  0  0
   27.7479  -15.1296    0.0000 C   0  0  0  0  0  0  0  0  0  0  0  0
   24.1276  -15.8200    0.0000 N   0  0  0  0  0  0  0  0  0  0  0  0
   25.3400  -13.7200    0.0000 O   0  0  0  0  0  0  0  0  0  0  0  0
   22.9321  -15.1296    0.0000 C   0  0  0  0  0  0  0  0  0  0  0  0
   21.7196  -15.8295    0.0000 C   0  0  0  0  0  0  0  0  0  0  0  0
   21.7194  -17.2295    0.0000 C   0  0  0  0  0  0  0  0  0  0  0  0
   22.9149  -17.9199    0.0000 C   0  0  0  0  0  0  0  0  0  0  0  0
   24.1274  -17.2200    0.0000 C   0  0  0  0  0  0  0  0  0  0  0  0
   20.4966  -17.9354    0.0000 C   0  0  0  0  0  0  0  0  0  0  0  0
   19.2877  -17.2374    0.0000 N   0  0  0  0  0  0  0  0  0  0  0  0
   19.2873  -15.8204    0.0000 C   0  0  0  0  0  0  0  0  0  0  0  0
   18.0747  -15.1207    0.0000 C   0  0  0  0  0  0  0  0  0  0  0  0
   16.8625  -15.8210    0.0000 C   0  0  0  0  0  0  0  0  0  0  0  0
   16.8628  -17.2380    0.0000 C   0  0  0  0  0  0  0  0  0  0  0  0
   18.0754  -17.9377    0.0000 C   0  0  0  0  0  0  0  0  0  0  0  0
   15.6551  -15.1242    0.0000 C   0  0  0  0  0  0  0  0  0  0  0  0
   14.4634  -15.8128    0.0000 N   0  0  0  0  0  0  0  0  0  0  0  0
   13.2739  -15.1264    0.0000 C   0  0  0  0  0  0  0  0  0  0  0  0
   12.0840  -15.8139    0.0000 C   0  0  0  0  0  0  0  0  0  0  0  0
   13.2734  -13.7203    0.0000 O   0  0  0  0  0  0  0  0  0  0  0  0
   10.8936  -15.1269    0.0000 C   0  0  0  0  0  0  0  0  0  0  0  0
    9.6813  -15.8272    0.0000 C   0  0  0  0  0  0  0  0  0  0  0  0
    9.6816  -17.2272    0.0000 C   0  0  0  0  0  0  0  0  0  0  0  0
   10.8721  -17.9142    0.0000 C   0  0  0  0  0  0  0  0  0  0  0  0
   12.0844  -17.2139    0.0000 C   0  0  0  0  0  0  0  0  0  0  0  0
   11.1635  -19.2835    0.0000 N   0  0  0  0  0  0  0  0  0  0  0  0
   12.5559  -19.4295    0.0000 C   0  0  0  0  0  0  0  0  0  0  0  0
   13.1250  -18.1504    0.0000 N   0  0  0  0  0  0  0  0  0  0  0  0
   13.2629  -20.6528    0.0000 C   0  0  0  0  0  0  0  0  0  0  0  0
   14.6300  -20.6521    0.0000 C   0  0  0  0  0  0  0  0  0  0  0  0
   12.5570  -21.8776    0.0000 C   0  0  0  0  0  0  0  0  0  0  0  0
  1  2  1  0     0  0
  2  3  1  0     0  0
  1  4  1  0     0  0
  1  5  2  0     0  0
  4  6  1  0     0  0
  6  7  1  0     0  0
  7  8  1  0     0  0
  8  9  1  0     0  0
  9 10  1  0     0  0
  4 10  1  0     0  0
  8 11  1  0     0  0
 11 12  1  0     0  0
 12 13  1  0     0  0
 13 14  1  0     0  0
 14 15  1  0     0  0
 15 16  1  0     0  0
 16 17  1  0     0  0
 12 17  1  0     0  0
 15 18  1  0     0  0
 18 19  1  0     0  0
 19 20  1  0     0  0
 20 21  1  0     0  0
 20 22  2  0     0  0
 21 23  2  0     0  0
 23 24  1  0     0  0
 24 25  2  0     0  0
 25 26  1  0     0  0
 26 27  2  0     0  0
 21 27  1  0     0  0
 26 28  1  0     0  0
 28 29  1  0     0  0
 29 30  2  0     0  0
 27 30  1  0     0  0
 29 31  1  0     0  0
 31 32  1  0     0  0
 31 33  1  0     0  0
M  END
