 
 
 
 32 35  0  0  0  0  0  0  0  0999 V2000
   25.7600  -21.7700    0.0000 C   0  0  0  0  0  0  0  0  0  0  0  0
   25.7600  -23.1700    0.0000 C   0  0  0  0  0  0  0  0  0  0  0  0
   24.5700  -23.8700    0.0000 C   0  0  0  0  0  0  0  0  0  0  0  0
   23.3100  -23.1700    0.0000 C   0  0  0  0  0  0  0  0  0  0  0  0
   23.3100  -21.7700    0.0000 C   0  0  0  0  0  0  0  0  0  0  0  0
   24.5700  -21.0700    0.0000 C   0  0  0  0  0  0  0  0  0  0  0  0
   22.1200  -23.8700    0.0000 O   0  0  0  0  0  0  0  0  0  0  0  0
   20.9300  -23.1700    0.0000 C   0  0  0  0  0  0  0  0  0  0  0  0
   19.7400  -23.8700    0.0000 C   0  0  0  0  0  0  0  0  0  0  0  0
   18.4800  -23.1700    0.0000 C   0  0  0  0  0  0  0  0  0  0  0  0
   18.4800  -21.7700    0.0000 C   0  0  0  0  0  0  0  0  0  0  0  0
   19.6700  -21.0700    0.0000 C   0  0  0  0  0  0  0  0  0  0  0  0
   20.9300  -21.7700    0.0000 C   0  0  0  0  0  0  0  0  0  0  0  0
   17.2900  -21.0700    0.0000 C   0  0  0  0  0  0  0  0  0  0  0  0
   16.1000  -21.7700    0.0000 N   0  0  0  0  0  0  0  0  0  0  0  0
   14.8400  -21.0700    0.0000 C   0  0  0  0  0  0  0  0  0  0  0  0
   14.8400  -19.6700    0.0000 C   0  0  0  0  0  0  0  0  0  0  0  0
   16.0300  -18.9700    0.0000 C   0  0  0  0  0  0  0  0  0  0  0  0
   17.2900  -19.6700    0.0000 C   0  0  0  0  0  0  0  0  0  0  0  0
   18.4800  -18.9700    0.0000 C   0  0  0  0  0  0  0  0  0  0  0  0
   19.6700  -19.6700    0.0000 O   0  0  0  0  0  0  0  0  0  0  0  0
   18.4800  -17.5700    0.0000 N   0  0  0  0  0  0  0  0  0  0  0  0
   13.6500  -21.7700    0.0000 C   0  0  0  0  0  0  0  0  0  0  0  0
   13.6500  -23.1700    0.0000 C   0  0  0  0  0  0  0  0  0  0  0  0
   12.3900  -23.8700    0.0000 C   0  0  0  0  0  0  0  0  0  0  0  0
   11.2000  -23.1700    0.0000 N   0  0  0  0  0  0  0  0  0  0  0  0
   11.2000  -21.7700    0.0000 C   0  0  0  0  0  0  0  0  0  0  0  0
   12.3900  -21.0700    0.0000 C   0  0  0  0  0  0  0  0  0  0  0  0
   10.0100  -23.8700    0.0000 C   0  0  0  0  0  0  0  0  0  0  0  0
    8.8200  -23.1700    0.0000 C   0  0  0  0  0  0  0  0  0  0  0  0
    7.6300  -23.8700    0.0000 C   0  0  0  0  0  0  0  0  0  0  0  0
   10.0100  -25.2700    0.0000 O   0  0  0  0  0  0  0  0  0  0  0  0
  1  2  2  0     0  0
  2  3  1  0     0  0
  3  4  2  0     0  0
  4  5  1  0     0  0
  5  6  2  0     0  0
  1  6  1  0     0  0
  4  7  1  0     0  0
  7  8  1  0     0  0
  8  9  2  0     0  0
  9 10  1  0     0  0
 10 11  2  0     0  0
 11 12  1  0     0  0
 12 13  2  0     0  0
  8 13  1  0     0  0
 11 14  1  0     0  0
 14 15  2  0     0  0
 15 16  1  0     0  0
 16 17  2  0     0  0
 17 18  1  0     0  0
 18 19  2  0     0  0
 14 19  1  0     0  0
 19 20  1  0     0  0
 20 21  2  0     0  0
 20 22  1  0     0  0
 16 23  1  0     0  0
 23 24  1  0     0  0
 24 25  1  0     0  0
 25 26  1  0     0  0
 26 27  1  0     0  0
 27 28  1  0     0  0
 23 28  1  0     0  0
 26 29  1  0     0  0
 29 30  1  0     0  0
 30 31  2  0     0  0
 29 32  2  0     0  0
M  END
