 
 
 
 47 51  0  0  1  0  0  0  0  0999 V2000
   21.7700  -15.1900    0.0000 C   0  0  0  0  0  0  0  0  0  0  0  0
   21.7700  -16.5900    0.0000 C   0  0  0  0  0  0  0  0  0  0  0  0
   20.5800  -17.2900    0.0000 C   0  0  0  0  0  0  0  0  0  0  0  0
   19.3200  -16.5900    0.0000 C   0  0  0  0  0  0  0  0  0  0  0  0
   19.3200  -15.1900    0.0000 C   0  0  0  0  0  0  0  0  0  0  0  0
   20.5800  -14.4900    0.0000 C   0  0  0  0  0  0  0  0  0  0  0  0
   18.1300  -14.4900    0.0000 C   0  0  0  0  0  0  0  0  0  0  0  0
   16.9400  -15.1900    0.0000 C   0  0  0  0  0  0  0  0  0  0  0  0
   15.7500  -14.4900    0.0000 N   0  0  0  0  0  0  0  0  0  0  0  0
   16.9400  -16.5900    0.0000 O   0  0  0  0  0  0  0  0  0  0  0  0
   14.5600  -15.1900    0.0000 C   0  0  0  0  0  0  0  0  0  0  0  0
   14.5600  -16.5900    0.0000 C   0  0  0  0  0  0  0  0  0  0  0  0
   13.3000  -17.2900    0.0000 N   0  0  0  0  0  0  0  0  0  0  0  0
   12.1100  -16.5900    0.0000 C   0  0  0  0  0  0  0  0  0  0  0  0
   12.1100  -15.1900    0.0000 C   0  0  0  0  0  0  0  0  0  0  0  0
   13.3000  -14.4900    0.0000 C   0  0  0  0  0  0  0  0  0  0  0  0
   10.9200  -17.2900    0.0000 N   0  0  0  0  0  0  0  0  0  0  0  0
   10.9200  -18.6900    0.0000 C   0  0  0  0  0  0  0  0  0  0  0  0
    9.6600  -19.3900    0.0000 C   0  0  0  0  0  0  0  0  0  0  0  0
    8.4700  -18.6900    0.0000 N   0  0  0  0  0  0  0  0  0  0  0  0
    8.4700  -17.2900    0.0000 C   0  0  0  0  0  0  0  0  0  0  0  0
    9.6600  -16.5900    0.0000 C   0  0  0  0  0  0  0  0  0  0  0  0
    7.2800  -19.3900    0.0000 C   0  0  0  0  0  0  0  0  0  0  0  0
    6.0200  -18.6900    0.0000 C   0  0  0  0  0  0  0  0  0  0  0  0
    6.0200  -17.2900    0.0000 O   0  0  0  0  0  0  0  0  0  0  0  0
    7.2800  -16.5900    0.0000 C   0  0  0  0  0  0  0  0  0  0  0  0
   13.3000  -13.0900    0.0000 C   0  0  0  0  0  0  0  0  0  0  0  0
   12.1100  -12.3900    0.0000 C   0  0  0  0  0  0  0  0  0  0  0  0
   12.1100  -10.9900    0.0000 C   0  0  0  0  0  0  0  0  0  0  0  0
   13.3000  -10.2900    0.0000 C   0  0  0  0  0  0  0  0  0  0  0  0
   14.5600  -10.9900    0.0000 C   0  0  0  0  0  0  0  0  0  0  0  0
   14.5600  -12.3900    0.0000 C   0  0  0  0  0  0  0  0  0  0  0  0
   13.3000   -8.8900    0.0000 F   0  0  0  0  0  0  0  0  0  0  0  0
   10.9200  -13.0900    0.0000 C   0  0  0  0  0  0  0  0  0  0  0  0
   15.7500  -13.0900    0.0000 C   0  0  0  0  0  0  0  0  0  0  0  0
   19.1100  -13.5100    0.0000 C   0  0  0  0  0  0  0  0  0  0  0  0
   17.4300  -13.3000    0.0000 C   0  0  0  0  0  0  0  0  0  0  0  0
   20.5800  -18.6900    0.0000 C   0  0  0  0  0  0  0  0  0  0  0  0
   22.9600  -14.4900    0.0000 C   0  0  0  0  0  0  0  0  0  0  0  0
   19.1800  -18.6900    0.0000 F   0  0  0  0  0  0  0  0  0  0  0  0
   21.9800  -18.6900    0.0000 F   0  0  0  0  0  0  0  0  0  0  0  0
   20.5800  -20.0900    0.0000 F   0  0  0  0  0  0  0  0  0  0  0  0
   24.2200  -13.7900    0.0000 F   0  0  0  0  0  0  0  0  0  0  0  0
   22.2600  -13.3000    0.0000 F   0  0  0  0  0  0  0  0  0  0  0  0
   23.6600  -15.6800    0.0000 F   0  0  0  0  0  0  0  0  0  0  0  0
   12.1100  -19.3900    0.0000 C   0  0  0  0  0  0  0  0  0  0  0  0
   13.3000  -18.6900    0.0000 O   0  0  0  0  0  0  0  0  0  0  0  0
  1  2  2  0     0  0
  2  3  1  0     0  0
  3  4  2  0     0  0
  4  5  1  0     0  0
  5  6  2  0     0  0
  1  6  1  0     0  0
  5  7  1  0     0  0
  7  8  1  0     0  0
  8  9  1  0     0  0
  8 10  2  0     0  0
  9 11  1  0     0  0
 11 12  2  0     0  0
 12 13  1  0     0  0
 13 14  2  0     0  0
 14 15  1  0     0  0
 15 16  2  0     0  0
 11 16  1  0     0  0
 14 17  1  0     0  0
 17 18  1  0     0  0
 18 19  1  0     0  0
 19 20  1  0     0  0
 20 21  1  0     0  0
 21 22  1  0     0  0
 17 22  1  0     0  0
 20 23  1  0     0  0
 23 24  1  0     0  0
 24 25  1  0     0  0
 25 26  1  0     0  0
 21 26  1  0     0  0
 16 27  1  0     0  0
 27 28  2  0     0  0
 28 29  1  0     0  0
 29 30  2  0     0  0
 30 31  1  0     0  0
 31 32  2  0     0  0
 27 32  1  0     0  0
 30 33  1  0     0  0
 28 34  1  0     0  0
  9 35  1  0     0  0
  7 36  1  0     0  0
  7 37  1  0     0  0
  3 38  1  0     0  0
  1 39  1  0     0  0
 38 40  1  0     0  0
 38 41  1  0     0  0
 38 42  1  0     0  0
 39 43  1  0     0  0
 39 44  1  0     0  0
 39 45  1  0     0  0
 18 46  1  6     0  0
 46 47  1  0     0  0
M  END
