 
 
 
 22 24  0  0  1  0  0  0  0  0999 V2000
   16.0300  -20.1600    0.0000 C   0  0  0  0  0  0  0  0  0  0  0  0
   16.0300  -21.5600    0.0000 C   0  0  0  0  0  0  0  0  0  0  0  0
   17.2424  -22.2600    0.0000 C   0  0  0  0  0  0  0  0  0  0  0  0
   18.4549  -21.5600    0.0000 C   0  0  0  0  0  0  0  0  0  0  0  0
   18.4549  -20.1600    0.0000 C   0  0  0  0  0  0  0  0  0  0  0  0
   17.2424  -19.4600    0.0000 C   0  0  0  0  0  0  0  0  0  0  0  0
   19.6860  -22.2710    0.0000 C   0  0  0  0  0  0  0  0  0  0  0  0
   20.8912  -21.5753    0.0000 N   0  0  0  0  0  0  0  0  0  0  0  0
   19.6857  -23.6599    0.0000 O   0  0  0  0  0  0  0  0  0  0  0  0
   14.9896  -22.4968    0.0000 C   0  0  0  0  0  0  0  0  0  0  0  0
   15.5590  -23.7758    0.0000 C   0  0  0  0  0  0  0  0  0  0  0  0
   16.9514  -23.6294    0.0000 N   0  0  0  0  0  0  0  0  0  0  0  0
   14.8176  -19.4600    0.0000 C   0  0  0  0  0  0  0  0  0  0  0  0
   14.8176  -18.0602    0.0000 C   0  0  0  0  0  0  0  0  0  0  0  0
   13.6051  -17.3602    0.0000 N   0  0  0  0  0  0  0  0  0  0  0  0
   12.3927  -18.0602    0.0000 C   0  0  0  0  0  0  0  0  0  0  0  0
   12.3927  -19.4600    0.0000 C   0  0  0  0  0  0  0  0  0  0  0  0
   13.6051  -20.1600    0.0000 C   0  0  0  0  0  0  0  0  0  0  0  0
   13.6051  -15.9602    0.0000 C   0  0  0  0  0  0  0  0  0  0  0  0
   14.7987  -15.2709    0.0000 O   0  0  0  0  0  0  0  0  0  0  0  0
   12.3738  -15.2492    0.0000 C   0  0  0  0  0  0  0  0  0  0  0  0
   11.1690  -15.9449    0.0000 C   0  0  0  0  0  0  0  0  0  0  0  0
  1  2  2  0     0  0
  2  3  1  0     0  0
  3  4  2  0     0  0
  4  5  1  0     0  0
  5  6  2  0     0  0
  1  6  1  0     0  0
  4  7  1  0     0  0
  7  8  1  0     0  0
  7  9  2  0     0  0
  2 10  1  0     0  0
 10 11  2  0     0  0
 11 12  1  0     0  0
  3 12  1  0     0  0
 13  1  1  6     0  0
 13 14  1  0     0  0
 14 15  1  0     0  0
 15 16  1  0     0  0
 16 17  1  0     0  0
 17 18  1  0     0  0
 13 18  1  0     0  0
 15 19  1  0     0  0
 19 20  2  0     0  0
 19 21  1  0     0  0
 21 22  2  0     0  0
M  END
