 
     RDKit          2D

 58 64  0  0  0  0  0  0  0  0999 V2000
   18.4919  -10.5513    0.0000 C   0  0  0  0  0  0  0  0  0  0  0  0
   17.6483   -9.4316    0.0000 C   0  0  0  0  0  0  0  0  0  0  0  0
   17.9905   -8.0673    0.0000 C   0  0  0  0  0  0  0  0  0  0  0  0
   19.2617   -7.4901    0.0000 N   0  0  0  0  0  0  0  0  0  0  0  0
   19.9065  -10.5817    0.0000 N   0  0  0  0  0  0  0  0  0  0  0  0
   20.5211   -8.1208    0.0000 C   0  0  0  0  0  0  0  0  0  0  0  0
   20.8046   -9.4994    0.0000 C   0  0  0  0  0  0  0  0  0  0  0  0
   16.7987   -7.3203    0.0000 S   0  0  0  0  0  0  0  0  0  0  0  0
   15.7200   -8.2230    0.0000 C   0  0  0  0  0  0  0  0  0  0  0  0
   16.2450   -9.4575    0.0000 C   0  0  0  0  0  0  0  0  0  0  0  0
   14.3803   -7.9003    0.0000 C   0  0  0  0  0  0  0  0  0  0  0  0
   17.7660  -11.7484    0.0000 N   0  0  0  0  0  0  0  0  0  0  0  0
   22.1331   -9.9409    0.0000 C   0  0  0  0  0  0  0  0  0  0  0  0
   23.1798   -9.0111    0.0000 C   0  0  0  0  0  0  0  0  0  0  0  0
   22.8963   -7.6326    0.0000 C   0  0  0  0  0  0  0  0  0  0  0  0
   21.5678   -7.1910    0.0000 C   0  0  0  0  0  0  0  0  0  0  0  0
   16.3806  -11.7887    0.0000 C   0  0  0  0  0  0  0  0  0  0  0  0
   15.7162  -13.0210    0.0000 C   0  0  0  0  0  0  0  0  0  0  0  0
   16.4511  -14.2126    0.0000 N   0  0  0  0  0  0  0  0  0  0  0  0
   17.8365  -14.2422    0.0000 C   0  0  0  0  0  0  0  0  0  0  0  0
   18.5010  -12.9400    0.0000 C   0  0  0  0  0  0  0  0  0  0  0  0
   15.7566  -15.4262    0.0000 C   0  0  0  0  0  0  0  0  0  0  0  0
   20.3000  -24.7100    0.0000 C   0  0  0  0  0  0  0  0  0  0  0  0
   20.3000  -26.0400    0.0000 C   0  0  0  0  0  0  0  0  0  0  0  0
   21.4900  -26.7400    0.0000 C   0  0  0  0  0  0  0  0  0  0  0  0
   22.7500  -26.0400    0.0000 C   0  0  0  0  0  0  0  0  0  0  0  0
   22.7500  -24.7100    0.0000 C   0  0  0  0  0  0  0  0  0  0  0  0
   21.4900  -24.0100    0.0000 C   0  0  0  0  0  0  0  0  0  0  0  0
   23.8700  -24.0100    0.0000 C   0  0  0  0  0  0  0  0  0  0  0  0
   23.8700  -22.6100    0.0000 C   0  0  0  0  0  0  0  0  0  0  0  0
   22.7500  -21.9100    0.0000 C   0  0  0  0  0  0  0  0  0  0  0  0
   21.4900  -22.6100    0.0000 C   0  0  0  0  0  0  0  0  0  0  0  0
   22.7500  -20.5800    0.0000 C   0  0  0  0  0  0  0  0  0  0  0  0
   21.4900  -19.8800    0.0000 C   0  0  0  0  0  0  0  0  0  0  0  0
   20.3000  -20.5800    0.0000 C   0  0  0  0  0  0  0  0  0  0  0  0
   20.3000  -21.9100    0.0000 C   0  0  0  0  0  0  0  0  0  0  0  0
   19.1100  -26.7400    0.0000 O   0  0  0  0  0  0  0  0  0  0  0  0
   23.8700  -25.3400    0.0000 O   0  0  0  0  0  0  0  0  0  0  0  0
   25.0600  -24.7100    0.0000 N   0  0  0  0  0  0  0  0  0  0  0  0
   22.7500  -23.3100    0.0000 C   0  0  0  0  0  0  0  0  0  0  0  0
   25.0600  -23.3100    0.0000 C   0  0  0  0  0  0  0  0  0  0  0  0
   26.4600  -24.7100    0.0000 C   0  0  0  0  0  0  0  0  0  0  0  0
   27.0900  -25.8300    0.0000 C   0  0  0  0  0  0  0  0  0  0  0  0
   28.2100  -26.3900    0.0000 C   0  0  0  0  0  0  0  0  0  0  0  0
   27.0900  -27.1600    0.0000 C   0  0  0  0  0  0  0  0  0  0  0  0
   19.1100  -22.6100    0.0000 O   0  0  0  0  0  0  0  0  0  0  0  0
   19.1100  -19.8800    0.0000 C   0  0  0  0  0  0  0  0  0  0  0  0
   17.9200  -20.5800    0.0000 O   0  0  0  0  0  0  0  0  0  0  0  0
   19.1100  -18.4800    0.0000 N   0  0  0  0  0  0  0  0  0  0  0  0
   29.7500  -22.4700    0.0000 O   0  0  0  0  0  0  0  0  0  0  0  0
   30.9624  -23.1700    0.0000 C   0  0  0  0  0  0  0  0  0  0  0  0
   32.1579  -22.4796    0.0000 C   0  0  0  0  0  0  0  0  0  0  0  0
   30.9625  -24.5698    0.0000 O   0  0  0  0  0  0  0  0  0  0  0  0
   33.3453  -23.1651    0.0000 C   0  0  0  0  0  0  0  0  0  0  0  0
   34.5365  -22.4771    0.0000 C   0  0  0  0  0  0  0  0  0  0  0  0
   35.7260  -23.1638    0.0000 O   0  0  0  0  0  0  0  0  0  0  0  0
   34.5365  -21.0703    0.0000 O   0  0  0  0  0  0  0  0  0  0  0  0
   32.1580  -21.0703    0.0000 O   0  0  0  0  0  0  0  0  0  0  0  0
  3  4  1  0
  1  5  2  0
  4  6  1  0
  2  3  2  0
  5  7  1  0
  1  2  1  0
  6  7  2  0
  3  8  1  0
  8  9  1  0
  9 10  2  0
  2 10  1  0
  9 11  1  0
  1 12  1  0
  7 13  1  0
 13 14  2  0
 14 15  1  0
 15 16  2  0
  6 16  1  0
 12 17  1  0
 17 18  1  0
 18 19  1  0
 19 20  1  0
 20 21  1  0
 12 21  1  0
 19 22  1  0
 23 24  1  0
 24 25  1  0
 25 26  1  0
 26 27  1  0
 27 28  1  0
 28 23  1  1
 27 29  1  0
 29 30  1  1
 30 31  1  0
 31 32  2  0
 28 32  1  0
 31 33  1  0
 33 34  2  0
 34 35  1  0
 35 36  2  0
 32 36  1  0
 24 37  2  0
 27 38  1  1
 29 39  1  0
 28 40  1  0
 39 41  1  0
 40 41  1  0
 39 42  1  0
 42 43  1  0
 44 43  1  0
 43 45  1  0
 44 45  1  0
 36 46  1  0
 35 47  1  0
 47 48  2  0
 47 49  1  0
 50 51  1  0
 51 52  1  0
 51 53  2  0
 52 54  1  0
 54 55  1  0
 55 56  1  0
 55 57  2  0
 52 58  1  1
M  END
