 
 
 
 36 36  0  0  0  0  0  0  0  0999 V2000
   29.1200  -19.3200    0.0000 C   0  0  0  0  0  0  0  0  0  0  0  0
   29.1200  -17.9200    0.0000 C   0  0  0  0  0  0  0  0  0  0  0  0
   27.9300  -17.2200    0.0000 C   0  0  0  0  0  0  0  0  0  0  0  0
   26.6700  -17.9200    0.0000 C   0  0  0  0  0  0  0  0  0  0  0  0
   26.6700  -19.3200    0.0000 C   0  0  0  0  0  0  0  0  0  0  0  0
   27.9300  -20.0200    0.0000 C   0  0  0  0  0  0  0  0  0  0  0  0
   30.3100  -20.0200    0.0000 O   0  0  0  0  0  0  0  0  0  0  0  0
   30.3100  -17.2200    0.0000 C   0  0  0  0  0  0  0  0  0  0  0  0
   31.5000  -17.9200    0.0000 N   0  0  0  0  0  0  0  0  0  0  0  0
   32.6900  -17.2200    0.0000 C   0  0  0  0  0  0  0  0  0  0  0  0
   33.8800  -17.9200    0.0000 C   0  0  0  0  0  0  0  0  0  0  0  0
   35.0700  -17.2200    0.0000 N   0  0  0  0  0  0  0  0  0  0  0  0
   36.2600  -17.9200    0.0000 C   0  0  0  0  0  0  0  0  0  0  0  0
   30.3100  -15.8200    0.0000 O   0  0  0  0  0  0  0  0  0  0  0  0
   37.4500  -17.2200    0.0000 C   0  0  0  0  0  0  0  0  0  0  0  0
   36.2600  -19.3200    0.0000 O   0  0  0  0  0  0  0  0  0  0  0  0
   38.6400  -17.9200    0.0000 C   0  0  0  0  0  0  0  0  0  0  0  0
   39.8300  -17.2200    0.0000 C   0  0  0  0  0  0  0  0  0  0  0  0
   41.2300  -17.2200    0.0000 C   0  0  0  0  0  0  0  0  0  0  0  0
   42.4200  -17.9200    0.0000 C   0  0  0  0  0  0  0  0  0  0  0  0
   43.6100  -17.2200    0.0000 C   0  0  0  0  0  0  0  0  0  0  0  0
   45.0100  -17.2200    0.0000 C   0  0  0  0  0  0  0  0  0  0  0  0
   46.2000  -17.9200    0.0000 C   0  0  0  0  0  0  0  0  0  0  0  0
   47.3900  -17.2200    0.0000 C   0  0  0  0  0  0  0  0  0  0  0  0
   48.7900  -17.2200    0.0000 C   0  0  0  0  0  0  0  0  0  0  0  0
   49.9800  -17.9200    0.0000 C   0  0  0  0  0  0  0  0  0  0  0  0
   51.1700  -17.2200    0.0000 C   0  0  0  0  0  0  0  0  0  0  0  0
   52.5700  -17.2200    0.0000 C   0  0  0  0  0  0  0  0  0  0  0  0
   53.7600  -17.9200    0.0000 C   0  0  0  0  0  0  0  0  0  0  0  0
   54.9500  -17.2200    0.0000 C   0  0  0  0  0  0  0  0  0  0  0  0
   56.3500  -17.2200    0.0000 C   0  0  0  0  0  0  0  0  0  0  0  0
   57.5400  -17.9200    0.0000 C   0  0  0  0  0  0  0  0  0  0  0  0
   58.7300  -17.2200    0.0000 C   0  0  0  0  0  0  0  0  0  0  0  0
   60.1300  -17.2200    0.0000 C   0  0  0  0  0  0  0  0  0  0  0  0
   61.3200  -17.9200    0.0000 C   0  0  0  0  0  0  0  0  0  0  0  0
   62.5100  -17.2200    0.0000 C   0  0  0  0  0  0  0  0  0  0  0  0
  1  2  2  0     0  0
  2  3  1  0     0  0
  3  4  2  0     0  0
  4  5  1  0     0  0
  5  6  2  0     0  0
  1  6  1  0     0  0
  1  7  1  0     0  0
  2  8  1  0     0  0
  8  9  1  0     0  0
  9 10  1  0     0  0
 10 11  1  0     0  0
 11 12  1  0     0  0
 12 13  1  0     0  0
  8 14  2  0     0  0
 13 15  1  0     0  0
 13 16  2  0     0  0
 15 17  1  0     0  0
 17 18  1  0     0  0
 18 19  2  0     0  0
 20 19  1  0     0  0
 20 21  1  0     0  0
 21 22  2  0     0  0
 23 22  1  0     0  0
 23 24  1  0     0  0
 24 25  2  0     0  0
 26 25  1  0     0  0
 26 27  1  0     0  0
 27 28  2  0     0  0
 29 28  1  0     0  0
 29 30  1  0     0  0
 30 31  2  0     0  0
 32 31  1  0     0  0
 32 33  1  0     0  0
 33 34  2  0     0  0
 35 34  1  0     0  0
 35 36  1  0     0  0
M  END
