 
 
 
 15 14  0  0  1  0  0  0  0  0999 V2000
   14.4200  -16.1700    0.0000 C   0  0  0  0  0  0  0  0  0  0  0  0
   15.6100  -16.8700    0.0000 C   0  0  0  0  0  0  0  0  0  0  0  0
   16.8700  -16.1700    0.0000 N   0  0  0  0  0  0  0  0  0  0  0  0
   18.0600  -16.8700    0.0000 C   0  0  0  0  0  0  0  0  0  0  0  0
   19.2500  -16.1700    0.0000 C   0  0  0  0  0  0  0  0  0  0  0  0
   20.4400  -16.8700    0.0000 C   0  0  0  0  0  0  0  0  0  0  0  0
   21.7000  -16.1700    0.0000 S   0  0  0  0  0  0  0  0  0  0  0  0
   15.6100  -18.2700    0.0000 O   0  0  0  0  0  0  0  0  0  0  0  0
   22.8900  -16.8700    0.0000 O   0  0  0  0  0  0  0  0  0  0  0  0
   22.8900  -15.4700    0.0000 O   0  0  0  0  0  0  0  0  0  0  0  0
   20.4400  -15.4700    0.0000 O   0  0  0  0  0  0  0  0  0  0  0  0
   13.2300  -16.8700    0.0000 C   0  0  0  0  0  0  0  0  0  0  0  0
   12.0400  -16.1700    0.0000 C   0  0  0  0  0  0  0  0  0  0  0  0
   13.2300  -18.2700    0.0000 C   0  0  0  0  0  0  0  0  0  0  0  0
   14.4200  -14.7700    0.0000 N   0  0  0  0  0  0  0  0  0  0  0  0
  1  2  1  0     0  0
  2  3  1  0     0  0
  3  4  1  0     0  0
  4  5  1  0     0  0
  5  6  1  0     0  0
  6  7  1  0     0  0
  2  8  2  0     0  0
  7  9  1  0     0  0
  7 10  2  0     0  0
  7 11  2  0     0  0
  1 12  1  0     0  0
 12 13  1  0     0  0
 12 14  1  0     0  0
  1 15  1  6     0  0
M  END
