 
 
 
 37 40  0  0  0  0  0  0  0  0999 V2000
   10.9200  -14.7700    0.0000 C   0  0  0  0  0  0  0  0  0  0  0  0
   10.9200  -13.3700    0.0000 C   0  0  0  0  0  0  0  0  0  0  0  0
    9.7300  -12.6700    0.0000 N   0  0  0  0  0  0  0  0  0  0  0  0
    8.4700  -13.3700    0.0000 C   0  0  0  0  0  0  0  0  0  0  0  0
    8.4700  -14.7700    0.0000 N   0  0  0  0  0  0  0  0  0  0  0  0
    9.7300  -15.4700    0.0000 C   0  0  0  0  0  0  0  0  0  0  0  0
    9.7300  -16.8700    0.0000 N   0  0  0  0  0  0  0  0  0  0  0  0
   12.1100  -15.4700    0.0000 O   0  0  0  0  0  0  0  0  0  0  0  0
   12.1100  -16.8700    0.0000 C   0  0  0  0  0  0  0  0  0  0  0  0
   13.3000  -17.5700    0.0000 C   0  0  0  0  0  0  0  0  0  0  0  0
   12.1100  -12.6700    0.0000 C   0  0  0  0  0  0  0  0  0  0  0  0
   13.3000  -13.3700    0.0000 C   0  0  0  0  0  0  0  0  0  0  0  0
   14.5600  -12.6700    0.0000 C   0  0  0  0  0  0  0  0  0  0  0  0
   14.5600  -11.2700    0.0000 C   0  0  0  0  0  0  0  0  0  0  0  0
   13.3700  -10.5700    0.0000 C   0  0  0  0  0  0  0  0  0  0  0  0
   12.1100  -11.2700    0.0000 C   0  0  0  0  0  0  0  0  0  0  0  0
   13.3000  -14.7000    0.0000 C   0  0  0  0  0  0  0  0  0  0  0  0
   13.3700   -9.1700    0.0000 F   0  0  0  0  0  0  0  0  0  0  0  0
   15.7500  -13.3700    0.0000 N   0  0  0  0  0  0  0  0  0  0  0  0
   16.9400  -12.6700    0.0000 C   0  0  0  0  0  0  0  0  0  0  0  0
   18.1300  -13.3700    0.0000 C   0  0  0  0  0  0  0  0  0  0  0  0
   16.9400  -11.2700    0.0000 O   0  0  0  0  0  0  0  0  0  0  0  0
   18.1300  -14.7700    0.0000 C   0  0  0  0  0  0  0  0  0  0  0  0
   19.3900  -15.4700    0.0000 C   0  0  0  0  0  0  0  0  0  0  0  0
   20.5800  -14.7700    0.0000 C   0  0  0  0  0  0  0  0  0  0  0  0
   20.5800  -13.3700    0.0000 C   0  0  0  0  0  0  0  0  0  0  0  0
   19.3900  -12.6700    0.0000 C   0  0  0  0  0  0  0  0  0  0  0  0
   19.3900  -11.2700    0.0000 F   0  0  0  0  0  0  0  0  0  0  0  0
   21.7700  -15.4700    0.0000 C   0  0  0  0  0  0  0  0  0  0  0  0
   23.1700  -15.4700    0.0000 C   0  0  0  0  0  0  0  0  0  0  0  0
   22.4700  -16.6600    0.0000 C   0  0  0  0  0  0  0  0  0  0  0  0
   14.4900  -16.8700    0.0000 N   0  0  0  0  0  0  0  0  0  0  0  0
   15.6800  -17.5700    0.0000 C   0  0  0  0  0  0  0  0  0  0  0  0
   14.4900  -15.4700    0.0000 C   0  0  0  0  0  0  0  0  0  0  0  0
   16.8700  -16.8700    0.0000 C   0  0  0  0  0  0  0  0  0  0  0  0
   15.6800  -18.9700    0.0000 O   0  0  0  0  0  0  0  0  0  0  0  0
   18.0600  -17.5700    0.0000 C   0  0  0  0  0  0  0  0  0  0  0  0
  1  2  2  0     0  0
  2  3  1  0     0  0
  3  4  2  0     0  0
  4  5  1  0     0  0
  5  6  2  0     0  0
  1  6  1  0     0  0
  6  7  1  0     0  0
  1  8  1  0     0  0
  8  9  1  0     0  0
  9 10  1  0     0  0
  2 11  1  0     0  0
 11 12  2  0     0  0
 12 13  1  0     0  0
 13 14  2  0     0  0
 14 15  1  0     0  0
 15 16  2  0     0  0
 11 16  1  0     0  0
 12 17  1  0     0  0
 15 18  1  0     0  0
 13 19  1  0     0  0
 19 20  1  0     0  0
 20 21  1  0     0  0
 20 22  2  0     0  0
 21 23  2  0     0  0
 23 24  1  0     0  0
 24 25  2  0     0  0
 25 26  1  0     0  0
 26 27  2  0     0  0
 21 27  1  0     0  0
 27 28  1  0     0  0
 25 29  1  0     0  0
 30 29  1  0     0  0
 29 31  1  0     0  0
 31 30  1  0     0  0
 10 32  1  0     0  0
 32 33  1  0     0  0
 32 34  1  0     0  0
 33 35  1  0     0  0
 33 36  2  0     0  0
 35 37  2  0     0  0
M  END
