 
 
 
 98106  0  0  1  0  0  0  0  0999 V2000
    8.3300  -19.1100    0.0000 C   0  0  0  0  0  0  0  0  0  0  0  0
    8.3300  -20.5100    0.0000 C   0  0  0  0  0  0  0  0  0  0  0  0
    9.5200  -21.2100    0.0000 C   0  0  0  0  0  0  0  0  0  0  0  0
   10.7800  -20.5100    0.0000 C   0  0  0  0  0  0  0  0  0  0  0  0
   10.7800  -19.1100    0.0000 C   0  0  0  0  0  0  0  0  0  0  0  0
    9.5200  -18.4100    0.0000 C   0  0  0  0  0  0  0  0  0  0  0  0
   11.9700  -18.4100    0.0000 O   0  0  0  0  0  0  0  0  0  0  0  0
   13.1600  -19.1100    0.0000 C   0  0  0  0  0  0  0  0  0  0  0  0
   14.3500  -18.4100    0.0000 C   0  0  0  0  0  0  0  0  0  0  0  0
   15.5400  -19.1100    0.0000 C   0  0  0  0  0  0  0  0  0  0  0  0
   16.7300  -18.4100    0.0000 C   0  0  0  0  0  0  0  0  0  0  0  0
   17.9200  -19.1100    0.0000 C   0  0  0  0  0  0  0  0  0  0  0  0
   19.1100  -18.4100    0.0000 O   0  0  0  0  0  0  0  0  0  0  0  0
   20.3000  -19.1100    0.0000 C   0  0  0  0  0  0  0  0  0  0  0  0
   20.3000  -20.5100    0.0000 C   0  0  0  0  0  0  0  0  0  0  0  0
   21.5600  -21.2100    0.0000 C   0  0  0  0  0  0  0  0  0  0  0  0
   22.7500  -20.5100    0.0000 C   0  0  0  0  0  0  0  0  0  0  0  0
   22.7500  -19.1100    0.0000 C   0  0  0  0  0  0  0  0  0  0  0  0
   21.5600  -18.4100    0.0000 C   0  0  0  0  0  0  0  0  0  0  0  0
   19.1100  -21.2100    0.0000 O   0  0  0  0  0  0  0  0  0  0  0  0
   17.9200  -20.5100    0.0000 C   0  0  0  0  0  0  0  0  0  0  0  0
   11.9700  -21.2100    0.0000 O   0  0  0  0  0  0  0  0  0  0  0  0
   13.1600  -20.5100    0.0000 C   0  0  0  0  0  0  0  0  0  0  0  0
    7.2100  -18.2000    0.0000 N   0  0  0  0  0  0  0  0  0  0  0  0
    5.8800  -18.5500    0.0000 C   0  0  0  0  0  0  0  0  0  0  0  0
    5.2500  -19.8100    0.0000 C   0  0  0  0  0  0  0  0  0  0  0  0
    5.8800  -21.0700    0.0000 N   0  0  0  0  0  0  0  0  0  0  0  0
    7.2100  -21.3500    0.0000 C   0  0  0  0  0  0  0  0  0  0  0  0
   23.8700  -18.2000    0.0000 N   0  0  0  0  0  0  0  0  0  0  0  0
   25.2000  -18.5500    0.0000 C   0  0  0  0  0  0  0  0  0  0  0  0
   25.8300  -19.8100    0.0000 C   0  0  0  0  0  0  0  0  0  0  0  0
   25.2000  -21.0700    0.0000 N   0  0  0  0  0  0  0  0  0  0  0  0
   23.8700  -21.3500    0.0000 C   0  0  0  0  0  0  0  0  0  0  0  0
    7.4900  -22.7500    0.0000 O   0  0  0  0  0  0  0  0  0  0  0  0
    3.8500  -20.0200    0.0000 C   0  0  0  0  0  0  0  0  0  0  0  0
    3.6400  -21.4200    0.0000 C   0  0  0  0  0  0  0  0  0  0  0  0
    4.9000  -22.0500    0.0000 C   0  0  0  0  0  0  0  0  0  0  0  0
    2.3800  -22.0500    0.0000 C   0  0  0  0  0  0  0  0  0  0  0  0
    4.5500  -18.6200    0.0000 H   0  0  0  0  0  0  0  0  0  0  0  0
   23.5900  -22.7500    0.0000 O   0  0  0  0  0  0  0  0  0  0  0  0
   26.1800  -22.0500    0.0000 C   0  0  0  0  0  0  0  0  0  0  0  0
   27.4400  -21.4200    0.0000 C   0  0  0  0  0  0  0  0  0  0  0  0
   27.2300  -20.0200    0.0000 C   0  0  0  0  0  0  0  0  0  0  0  0
   28.7000  -22.0500    0.0000 C   0  0  0  0  0  0  0  0  0  0  0  0
   26.1100  -17.4300    0.0000 O   0  0  0  0  0  0  0  0  0  0  0  0
   26.8100  -18.8300    0.0000 H   0  0  0  0  0  0  0  0  0  0  0  0
   23.5900  -16.8000    0.0000 C   0  0  0  0  0  0  0  0  0  0  0  0
   22.2600  -16.3800    0.0000 O   0  0  0  0  0  0  0  0  0  0  0  0
   24.6400  -15.8900    0.0000 O   0  0  0  0  0  0  0  0  0  0  0  0
   24.6400  -14.4900    0.0000 C   0  0  0  0  0  0  0  0  0  0  0  0
   23.4500  -13.7900    0.0000 C   0  0  0  0  0  0  0  0  0  0  0  0
   23.4500  -12.3900    0.0000 C   0  0  0  0  0  0  0  0  0  0  0  0
   22.1900  -11.6900    0.0000 C   0  0  0  0  0  0  0  0  0  0  0  0
   21.0000  -12.3900    0.0000 C   0  0  0  0  0  0  0  0  0  0  0  0
   21.0000  -13.7900    0.0000 C   0  0  0  0  0  0  0  0  0  0  0  0
   22.1900  -14.4900    0.0000 C   0  0  0  0  0  0  0  0  0  0  0  0
   19.8100  -11.6900    0.0000 N   0  0  0  0  0  0  0  0  0  0  0  0
   18.6200  -12.3900    0.0000 C   0  0  0  0  0  0  0  0  0  0  0  0
   17.4300  -11.6900    0.0000 C   0  0  0  0  0  0  0  0  0  0  0  0
   18.6200  -13.7900    0.0000 O   0  0  0  0  0  0  0  0  0  0  0  0
   16.2400  -12.3900    0.0000 N   0  0  0  0  0  0  0  0  0  0  0  0
   15.0500  -11.6900    0.0000 C   0  0  0  0  0  0  0  0  0  0  0  0
   13.8600  -12.3900    0.0000 C   0  0  0  0  0  0  0  0  0  0  0  0
   17.4300  -10.2900    0.0000 C   0  0  0  0  0  0  0  0  0  0  0  0
   15.0500  -10.2900    0.0000 O   0  0  0  0  0  0  0  0  0  0  0  0
   12.6700  -11.6900    0.0000 N   0  0  0  0  0  0  0  0  0  0  0  0
   13.8600  -13.7900    0.0000 C   0  0  0  0  0  0  0  0  0  0  0  0
   12.6700  -14.4900    0.0000 C   0  0  0  0  0  0  0  0  0  0  0  0
   15.0500  -14.4900    0.0000 C   0  0  0  0  0  0  0  0  0  0  0  0
   11.4800  -12.3900    0.0000 C   0  0  0  0  0  0  0  0  0  0  0  0
   10.2900  -11.6900    0.0000 C   0  0  0  0  0  0  0  0  0  0  0  0
   11.4800  -13.7900    0.0000 O   0  0  0  0  0  0  0  0  0  0  0  0
    9.1000  -12.3900    0.0000 O   0  0  0  0  0  0  0  0  0  0  0  0
    7.9100  -11.6900    0.0000 C   0  0  0  0  0  0  0  0  0  0  0  0
    6.7200  -12.3900    0.0000 C   0  0  0  0  0  0  0  0  0  0  0  0
    5.5300  -11.6900    0.0000 O   0  0  0  0  0  0  0  0  0  0  0  0
    4.3400  -12.3900    0.0000 C   0  0  0  0  0  0  0  0  0  0  0  0
    3.1500  -11.6900    0.0000 C   0  0  0  0  0  0  0  0  0  0  0  0
    3.1500  -10.2900    0.0000 N   0  0  0  0  0  0  0  0  0  0  0  0
    4.3400   -9.5900    0.0000 S   0  0  0  0  0  0  0  0  0  0  0  0
    5.5300  -10.2900    0.0000 N   0  0  0  0  0  0  0  0  0  0  0  0
    3.6400   -8.4000    0.0000 O   0  0  0  0  0  0  0  0  0  0  0  0
    5.0400   -8.4000    0.0000 O   0  0  0  0  0  0  0  0  0  0  0  0
    6.7200   -9.5900    0.0000 C   0  0  0  0  0  0  0  0  0  0  0  0
    7.9100  -10.2900    0.0000 O   0  0  0  0  0  0  0  0  0  0  0  0
    6.7200   -8.1900    0.0000 O   0  0  0  0  0  0  0  0  0  0  0  0
    9.1000   -9.5900    0.0000 C   0  0  0  0  0  0  0  0  0  0  0  0
    9.1000   -8.1900    0.0000 C   0  0  0  0  0  0  0  0  0  0  0  0
    8.4000   -7.0000    0.0000 C   0  0  0  0  0  0  0  0  0  0  0  0
    9.8000   -7.0000    0.0000 C   0  0  0  0  0  0  0  0  0  0  0  0
    8.4000   -3.6400    0.0000 C   0  0  0  0  0  0  0  0  0  0  0  0
    9.8000   -3.6400    0.0000 C   0  0  0  0  0  0  0  0  0  0  0  0
   10.7800   -4.6200    0.0000 C   0  0  0  0  0  0  0  0  0  0  0  0
   10.7800   -6.0200    0.0000 C   0  0  0  0  0  0  0  0  0  0  0  0
    7.4200   -6.0200    0.0000 C   0  0  0  0  0  0  0  0  0  0  0  0
    7.4200   -4.6200    0.0000 C   0  0  0  0  0  0  0  0  0  0  0  0
   11.2000   -7.0000    0.0000 H   0  0  0  0  0  0  0  0  0  0  0  0
    7.0000   -7.0000    0.0000 H   0  0  0  0  0  0  0  0  0  0  0  0
  1  2  2  0     0  0
  2  3  1  0     0  0
  3  4  2  0     0  0
  4  5  1  0     0  0
  5  6  2  0     0  0
  1  6  1  0     0  0
  5  7  1  0     0  0
  7  8  1  0     0  0
  8  9  1  0     0  0
  9 10  1  0     0  0
 10 11  1  0     0  0
 11 12  1  0     0  0
 12 13  1  0     0  0
 13 14  1  0     0  0
 14 15  2  0     0  0
 15 16  1  0     0  0
 16 17  2  0     0  0
 17 18  1  0     0  0
 18 19  2  0     0  0
 14 19  1  0     0  0
 15 20  1  0     0  0
 20 21  1  0     0  0
  4 22  1  0     0  0
 22 23  1  0     0  0
 25 26  1  0     0  0
 26 27  1  0     0  0
 24 25  2  0     0  0
  2 28  1  0     0  0
  1 24  1  0     0  0
 27 28  1  0     0  0
 30 31  1  0     0  0
 32 31  1  0     0  0
 29 30  1  0     0  0
 17 33  1  0     0  0
 18 29  1  0     0  0
 32 33  1  0     0  0
 28 34  2  0     0  0
 26 35  1  0     0  0
 35 36  1  0     0  0
 36 37  2  0     0  0
 27 37  1  0     0  0
 36 38  1  0     0  0
 26 39  1  6     0  0
 33 40  2  0     0  0
 32 41  1  0     0  0
 41 42  2  0     0  0
 42 43  1  0     0  0
 31 43  1  0     0  0
 42 44  1  0     0  0
 30 45  1  1     0  0
 31 46  1  1     0  0
 29 47  1  0     0  0
 47 48  2  0     0  0
 47 49  1  0     0  0
 49 50  1  0     0  0
 50 51  1  0     0  0
 51 52  2  0     0  0
 52 53  1  0     0  0
 53 54  2  0     0  0
 54 55  1  0     0  0
 55 56  2  0     0  0
 51 56  1  0     0  0
 54 57  1  0     0  0
 57 58  1  0     0  0
 58 59  1  0     0  0
 58 60  2  0     0  0
 59 61  1  0     0  0
 61 62  1  0     0  0
 62 63  1  0     0  0
 59 64  1  1     0  0
 62 65  2  0     0  0
 63 66  1  0     0  0
 63 67  1  6     0  0
 67 68  1  0     0  0
 67 69  1  0     0  0
 66 70  1  0     0  0
 70 71  1  0     0  0
 70 72  2  0     0  0
 71 73  1  0     0  0
 73 74  1  0     0  0
 74 75  1  0     0  0
 75 76  1  0     0  0
 76 77  1  0     0  0
 77 78  1  0     0  0
 78 79  1  0     0  0
 79 80  1  0     0  0
 80 81  1  0     0  0
 80 82  2  0     0  0
 80 83  2  0     0  0
 81 84  1  0     0  0
 84 85  1  0     0  0
 84 86  2  0     0  0
 85 87  1  0     0  0
 88 87  1  1     0  0
 89 90  1  0     0  0
 90 88  1  0     0  0
 88 89  1  0     0  0
 91 92  3  0     0  0
 92 93  1  0     0  0
 93 94  1  0     0  0
 94 90  1  0     0  0
 89 95  1  0     0  0
 95 96  1  0     0  0
 96 91  1  0     0  0
 90 97  1  6     0  0
 89 98  1  6     0  0
M  END
