 
 
 
 25 28  0  0  1  0  0  0  0  0999 V2000
   10.7800   -9.6600    0.0000 C   0  0  0  0  0  0  0  0  0  0  0  0
   11.9700  -10.3600    0.0000 N   0  0  0  0  0  0  0  0  0  0  0  0
    9.5900  -10.3600    0.0000 C   0  0  0  0  0  0  0  0  0  0  0  0
   10.7800   -8.2600    0.0000 O   0  0  0  0  0  0  0  0  0  0  0  0
    8.2600  -10.0100    0.0000 C   0  0  0  0  0  0  0  0  0  0  0  0
    7.4900  -11.1300    0.0000 N   0  0  0  0  0  0  0  0  0  0  0  0
    8.3300  -12.1800    0.0000 N   0  0  0  0  0  0  0  0  0  0  0  0
    9.5900  -11.7600    0.0000 C   0  0  0  0  0  0  0  0  0  0  0  0
    7.9100  -13.5100    0.0000 C   0  0  0  0  0  0  0  0  0  0  0  0
   13.1600   -9.6600    0.0000 C   0  0  0  0  0  0  0  0  0  0  0  0
   14.4200  -10.2200    0.0000 C   0  0  0  0  0  0  0  0  0  0  0  0
   15.3300   -9.2400    0.0000 C   0  0  0  0  0  0  0  0  0  0  0  0
   14.7000   -8.0500    0.0000 C   0  0  0  0  0  0  0  0  0  0  0  0
   13.3000   -8.3300    0.0000 C   0  0  0  0  0  0  0  0  0  0  0  0
   14.8400  -11.5500    0.0000 C   0  0  0  0  0  0  0  0  0  0  0  0
   16.2400  -11.8300    0.0000 C   0  0  0  0  0  0  0  0  0  0  0  0
   17.1500  -10.8500    0.0000 C   0  0  0  0  0  0  0  0  0  0  0  0
   16.7300   -9.5200    0.0000 C   0  0  0  0  0  0  0  0  0  0  0  0
   18.3400  -11.5500    0.0000 C   0  0  0  0  0  0  0  0  0  0  0  0
   18.7600  -12.8800    0.0000 N   0  0  0  0  0  0  0  0  0  0  0  0
   20.1600  -12.8800    0.0000 O   0  0  0  0  0  0  0  0  0  0  0  0
   20.5800  -11.5500    0.0000 C   0  0  0  0  0  0  0  0  0  0  0  0
   19.4600  -10.7100    0.0000 N   0  0  0  0  0  0  0  0  0  0  0  0
   21.7700  -10.8500    0.0000 C   0  0  0  0  0  0  0  0  0  0  0  0
   22.9600  -11.5500    0.0000 C   0  0  0  0  0  0  0  0  0  0  0  0
  1  2  1  0     0  0
  1  3  1  0     0  0
  1  4  2  0     0  0
  3  5  1  0     0  0
  5  6  2  0     0  0
  6  7  1  0     0  0
  7  8  1  0     0  0
  3  8  2  0     0  0
  7  9  1  0     0  0
 10  2  1  6     0  0
 10 11  1  0     0  0
 11 12  1  0     0  0
 12 13  1  0     0  0
 13 14  1  0     0  0
 10 14  1  0     0  0
 11 15  2  0     0  0
 15 16  1  0     0  0
 16 17  2  0     0  0
 17 18  1  0     0  0
 12 18  2  0     0  0
 19 20  2  0     0  0
 20 21  1  0     0  0
 21 22  1  0     0  0
 22 23  2  0     0  0
 19 23  1  0     0  0
 17 19  1  0     0  0
 24 25  1  0     0  0
 24 22  1  0     0  0
M  END
