 
 
 
 44 47  0  0  0  0  0  0  0  0999 V2000
   15.8983  -13.9365    0.0000 C   0  0  0  0  0  0  0  0  0  0  0  0
   15.8983  -15.3370    0.0000 N   0  0  0  0  0  0  0  0  0  0  0  0
   17.0887  -16.0373    0.0000 C   0  0  0  0  0  0  0  0  0  0  0  0
   18.3492  -15.3370    0.0000 N   0  0  0  0  0  0  0  0  0  0  0  0
   18.3492  -13.9365    0.0000 C   0  0  0  0  0  0  0  0  0  0  0  0
   17.0887  -13.2363    0.0000 C   0  0  0  0  0  0  0  0  0  0  0  0
   17.0887  -17.4377    0.0000 N   0  0  0  0  0  0  0  0  0  0  0  0
   18.2792  -18.1380    0.0000 C   0  0  0  0  0  0  0  0  0  0  0  0
   18.2792  -19.5385    0.0000 C   0  0  0  0  0  0  0  0  0  0  0  0
   19.5396  -20.2387    0.0000 C   0  0  0  0  0  0  0  0  0  0  0  0
   20.7300  -19.5385    0.0000 C   0  0  0  0  0  0  0  0  0  0  0  0
   20.7300  -18.1380    0.0000 C   0  0  0  0  0  0  0  0  0  0  0  0
   19.5396  -17.4377    0.0000 C   0  0  0  0  0  0  0  0  0  0  0  0
   19.5396  -16.0373    0.0000 O   0  0  0  0  0  0  0  0  0  0  0  0
   20.7300  -15.3370    0.0000 C   0  0  0  0  0  0  0  0  0  0  0  0
   21.9204  -20.2387    0.0000 N   0  0  0  0  0  0  0  0  0  0  0  0
   23.1109  -19.5385    0.0000 C   0  0  0  0  0  0  0  0  0  0  0  0
   24.3013  -20.2387    0.0000 C   0  0  0  0  0  0  0  0  0  0  0  0
   25.4917  -19.5385    0.0000 N   0  0  0  0  0  0  0  0  0  0  0  0
   26.6821  -20.2387    0.0000 C   0  0  0  0  0  0  0  0  0  0  0  0
   25.4917  -18.1380    0.0000 C   0  0  0  0  0  0  0  0  0  0  0  0
   21.9204  -21.6392    0.0000 C   0  0  0  0  0  0  0  0  0  0  0  0
   19.5396  -21.6392    0.0000 N   0  0  0  0  0  0  0  0  0  0  0  0
   18.3492  -22.3395    0.0000 C   0  0  0  0  0  0  0  0  0  0  0  0
   17.1588  -21.6392    0.0000 C   0  0  0  0  0  0  0  0  0  0  0  0
   15.9683  -22.3395    0.0000 C   0  0  0  0  0  0  0  0  0  0  0  0
   18.3492  -23.7400    0.0000 O   0  0  0  0  0  0  0  0  0  0  0  0
   14.7079  -13.2363    0.0000 C   0  0  0  0  0  0  0  0  0  0  0  0
   14.7079  -11.8358    0.0000 C   0  0  0  0  0  0  0  0  0  0  0  0
   13.4475  -11.3456    0.0000 N   0  0  0  0  0  0  0  0  0  0  0  0
   12.5371  -12.4660    0.0000 C   0  0  0  0  0  0  0  0  0  0  0  0
   13.3774  -13.6564    0.0000 C   0  0  0  0  0  0  0  0  0  0  0  0
   13.0273  -10.0151    0.0000 C   0  0  0  0  0  0  0  0  0  0  0  0
   11.9769   -9.1048    0.0000 C   0  0  0  0  0  0  0  0  0  0  0  0
   13.3074   -8.6146    0.0000 C   0  0  0  0  0  0  0  0  0  0  0  0
   11.1366  -12.6060    0.0000 C   0  0  0  0  0  0  0  0  0  0  0  0
   10.5764  -13.8665    0.0000 C   0  0  0  0  0  0  0  0  0  0  0  0
   11.4167  -15.0569    0.0000 C   0  0  0  0  0  0  0  0  0  0  0  0
   12.8172  -14.9169    0.0000 C   0  0  0  0  0  0  0  0  0  0  0  0
   24.7100  -10.9200    0.0000 S   0  0  0  0  0  0  0  0  0  0  0  0
   24.7100   -9.5200    0.0000 O   0  0  0  0  0  0  0  0  0  0  0  0
   24.7100  -12.3200    0.0000 O   0  0  0  0  0  0  0  0  0  0  0  0
   26.1100  -10.9200    0.0000 O   0  0  0  0  0  0  0  0  0  0  0  0
   23.3100  -10.9200    0.0000 C   0  0  0  0  0  0  0  0  0  0  0  0
  1  2  2  0     0  0
  2  3  1  0     0  0
  3  4  2  0     0  0
  4  5  1  0     0  0
  5  6  2  0     0  0
  1  6  1  0     0  0
  3  7  1  0     0  0
  7  8  1  0     0  0
  8  9  2  0     0  0
  9 10  1  0     0  0
 10 11  2  0     0  0
 11 12  1  0     0  0
 12 13  2  0     0  0
  8 13  1  0     0  0
 13 14  1  0     0  0
 14 15  1  0     0  0
 11 16  1  0     0  0
 16 17  1  0     0  0
 17 18  1  0     0  0
 18 19  1  0     0  0
 19 20  1  0     0  0
 19 21  1  0     0  0
 16 22  1  0     0  0
 10 23  1  0     0  0
 23 24  1  0     0  0
 24 25  1  0     0  0
 25 26  2  0     0  0
 24 27  2  0     0  0
  1 28  1  0     0  0
 28 29  2  0     0  0
 29 30  1  0     0  0
 30 31  1  0     0  0
 31 32  1  0     0  0
 28 32  1  0     0  0
 30 33  1  0     0  0
 35 34  1  0     0  0
 34 33  1  0     0  0
 33 35  1  0     0  0
 31 36  2  0     0  0
 36 37  1  0     0  0
 37 38  2  0     0  0
 38 39  1  0     0  0
 32 39  2  0     0  0
 40 41  2  0     0  0
 40 42  2  0     0  0
 40 43  1  0     0  0
 40 44  1  0     0  0
M  END
