 
 
 
 32 34  0  0  1  0  0  0  0  0999 V2000
   24.9900  -15.4700    0.0000 C   0  0  0  0  0  0  0  0  0  0  0  0
   24.9900  -16.8700    0.0000 C   0  0  0  0  0  0  0  0  0  0  0  0
   26.1800  -17.5700    0.0000 N   0  0  0  0  0  0  0  0  0  0  0  0
   27.4400  -16.8700    0.0000 C   0  0  0  0  0  0  0  0  0  0  0  0
   27.4400  -15.4700    0.0000 C   0  0  0  0  0  0  0  0  0  0  0  0
   26.1800  -14.7700    0.0000 C   0  0  0  0  0  0  0  0  0  0  0  0
   26.1800  -13.3700    0.0000 C   0  0  0  0  0  0  0  0  0  0  0  0
   24.7800  -13.3700    0.0000 F   0  0  0  0  0  0  0  0  0  0  0  0
   27.5800  -13.3700    0.0000 F   0  0  0  0  0  0  0  0  0  0  0  0
   26.1800  -11.9700    0.0000 F   0  0  0  0  0  0  0  0  0  0  0  0
   28.6300  -14.7700    0.0000 Cl  0  0  0  0  0  0  0  0  0  0  0  0
   23.8000  -17.5700    0.0000 N   0  0  0  0  0  0  0  0  0  0  0  0
   22.6100  -16.8700    0.0000 C   0  0  0  0  0  0  0  0  0  0  0  0
   21.4200  -17.5700    0.0000 C   0  0  0  0  0  0  0  0  0  0  0  0
   22.6100  -15.4700    0.0000 O   0  0  0  0  0  0  0  0  0  0  0  0
   20.3000  -16.7300    0.0000 S   0  0  0  0  0  0  0  0  0  0  0  0
   19.1800  -17.5700    0.0000 C   0  0  0  0  0  0  0  0  0  0  0  0
   19.6000  -18.8300    0.0000 N   0  0  0  0  0  0  0  0  0  0  0  0
   20.9300  -18.8300    0.0000 C   0  0  0  0  0  0  0  0  0  0  0  0
   17.9900  -16.8700    0.0000 C   0  0  0  0  0  0  0  0  0  0  0  0
   16.8000  -17.5700    0.0000 N   0  0  0  0  0  0  0  0  0  0  0  0
   17.9900  -15.4700    0.0000 C   0  0  0  0  0  0  0  0  0  0  0  0
   15.5819  -16.8799    0.0000 C   0  0  0  0  0  0  0  0  0  0  0  0
   14.4005  -17.5750    0.0000 C   0  0  0  0  0  0  0  0  0  0  0  0
   15.6402  -15.4706    0.0000 O   0  0  0  0  0  0  0  0  0  0  0  0
   13.1951  -16.8920    0.0000 N   0  0  0  0  0  0  0  0  0  0  0  0
   11.9884  -17.6018    0.0000 C   0  0  0  0  0  0  0  0  0  0  0  0
   11.9997  -19.0018    0.0000 N   0  0  0  0  0  0  0  0  0  0  0  0
   13.2051  -19.6847    0.0000 C   0  0  0  0  0  0  0  0  0  0  0  0
   14.4118  -18.9749    0.0000 C   0  0  0  0  0  0  0  0  0  0  0  0
   13.2166  -21.0699    0.0000 N   0  0  0  0  0  0  0  0  0  0  0  0
   15.6339  -19.6674    0.0000 Cl  0  0  0  0  0  0  0  0  0  0  0  0
  1  2  2  0     0  0
  2  3  1  0     0  0
  3  4  2  0     0  0
  4  5  1  0     0  0
  5  6  2  0     0  0
  1  6  1  0     0  0
  6  7  1  0     0  0
  7  8  1  0     0  0
  7  9  1  0     0  0
  7 10  1  0     0  0
  5 11  1  0     0  0
  2 12  1  0     0  0
 12 13  1  0     0  0
 13 14  1  0     0  0
 13 15  2  0     0  0
 14 16  1  0     0  0
 16 17  1  0     0  0
 17 18  2  0     0  0
 18 19  1  0     0  0
 14 19  2  0     0  0
 20 17  1  0     0  0
 20 21  1  0     0  0
 20 22  1  6     0  0
 21 23  1  0     0  0
 23 24  1  0     0  0
 23 25  2  0     0  0
 24 26  2  0     0  0
 26 27  1  0     0  0
 27 28  2  0     0  0
 28 29  1  0     0  0
 29 30  2  0     0  0
 24 30  1  0     0  0
 29 31  1  0     0  0
 30 32  1  0     0  0
M  END
