 
 
 
 20 21  0  0  1  0  0  0  0  0999 V2000
    7.2800  -16.6600    0.0000 C   0  0  0  0  0  0  0  0  0  0  0  0
    7.2800  -18.0600    0.0000 C   0  0  0  0  0  0  0  0  0  0  0  0
    8.4924  -18.7600    0.0000 C   0  0  0  0  0  0  0  0  0  0  0  0
    9.7049  -18.0600    0.0000 C   0  0  0  0  0  0  0  0  0  0  0  0
    9.7049  -16.6600    0.0000 C   0  0  0  0  0  0  0  0  0  0  0  0
    8.4924  -15.9600    0.0000 C   0  0  0  0  0  0  0  0  0  0  0  0
   10.9360  -15.9490    0.0000 C   0  0  0  0  0  0  0  0  0  0  0  0
   12.1412  -16.6447    0.0000 N   0  0  0  0  0  0  0  0  0  0  0  0
   13.3235  -15.9619    0.0000 C   0  0  0  0  0  0  0  0  0  0  0  0
   14.5175  -16.6512    0.0000 C   0  0  0  0  0  0  0  0  0  0  0  0
   15.7299  -15.9512    0.0000 C   0  0  0  0  0  0  0  0  0  0  0  0
   15.7299  -14.5512    0.0000 N   0  0  0  0  0  0  0  0  0  0  0  0
   14.5360  -13.8619    0.0000 C   0  0  0  0  0  0  0  0  0  0  0  0
   13.3235  -14.5619    0.0000 N   0  0  0  0  0  0  0  0  0  0  0  0
   16.9534  -13.8446    0.0000 C   0  0  0  0  0  0  0  0  0  0  0  0
   18.1624  -14.5425    0.0000 C   0  0  0  0  0  0  0  0  0  0  0  0
   16.9532  -12.4601    0.0000 C   0  0  0  0  0  0  0  0  0  0  0  0
   14.5359  -12.4602    0.0000 O   0  0  0  0  0  0  0  0  0  0  0  0
   16.9612  -16.6622    0.0000 O   0  0  0  0  0  0  0  0  0  0  0  0
   10.9357  -14.5601    0.0000 C   0  0  0  0  0  0  0  0  0  0  0  0
  1  2  2  0     0  0
  2  3  1  0     0  0
  3  4  2  0     0  0
  4  5  1  0     0  0
  5  6  2  0     0  0
  1  6  1  0     0  0
  5  7  1  0     0  0
  7  8  1  0     0  0
  8  9  1  0     0  0
  9 10  2  0     0  0
 10 11  1  0     0  0
 11 12  1  0     0  0
 12 13  1  0     0  0
 13 14  1  0     0  0
  9 14  1  0     0  0
 12 15  1  0     0  0
 15 16  1  0     0  0
 15 17  1  0     0  0
 13 18  2  0     0  0
 11 19  2  0     0  0
  7 20  1  6     0  0
M  END
