 
 
 
 36 39  0  0  1  0  0  0  0  0999 V2000
   11.6368  -20.3293    0.0000 C   0  0  0  0  0  0  0  0  0  0  0  0
   11.6368  -18.9273    0.0000 N   0  0  0  0  0  0  0  0  0  0  0  0
   12.8285  -18.2263    0.0000 C   0  0  0  0  0  0  0  0  0  0  0  0
   14.0903  -18.9273    0.0000 C   0  0  0  0  0  0  0  0  0  0  0  0
   14.0903  -20.3293    0.0000 C   0  0  0  0  0  0  0  0  0  0  0  0
   12.8285  -21.0303    0.0000 N   0  0  0  0  0  0  0  0  0  0  0  0
   15.4222  -18.5067    0.0000 C   0  0  0  0  0  0  0  0  0  0  0  0
   16.1934  -19.6283    0.0000 C   0  0  0  0  0  0  0  0  0  0  0  0
   15.4222  -20.7499    0.0000 N   0  0  0  0  0  0  0  0  0  0  0  0
   12.8285  -16.8243    0.0000 N   0  0  0  0  0  0  0  0  0  0  0  0
   11.6368  -16.1233    0.0000 C   0  0  0  0  0  0  0  0  0  0  0  0
   14.0202  -16.1233    0.0000 C   0  0  0  0  0  0  0  0  0  0  0  0
   14.2305  -14.7212    0.0000 C   0  0  0  0  0  0  0  0  0  0  0  0
   15.5624  -14.4408    0.0000 C   0  0  0  0  0  0  0  0  0  0  0  0
   16.2635  -15.6325    0.0000 C   0  0  0  0  0  0  0  0  0  0  0  0
   15.3521  -16.6841    0.0000 C   0  0  0  0  0  0  0  0  0  0  0  0
   16.5439  -13.3893    0.0000 C   0  0  0  0  0  0  0  0  0  0  0  0
   17.8057  -13.9501    0.0000 N   0  0  0  0  0  0  0  0  0  0  0  0
   17.6655  -15.3521    0.0000 C   0  0  0  0  0  0  0  0  0  0  0  0
   18.9974  -13.2491    0.0000 C   0  0  0  0  0  0  0  0  0  0  0  0
   20.1891  -13.9501    0.0000 N   0  0  0  0  0  0  0  0  0  0  0  0
   18.9974  -11.8471    0.0000 O   0  0  0  0  0  0  0  0  0  0  0  0
   21.3808  -13.2491    0.0000 C   0  0  0  0  0  0  0  0  0  0  0  0
   21.3808  -11.8471    0.0000 S   0  0  0  0  0  0  0  0  0  0  0  0
   22.7128  -11.3564    0.0000 N   0  0  0  0  0  0  0  0  0  0  0  0
   23.5540  -12.5481    0.0000 C   0  0  0  0  0  0  0  0  0  0  0  0
   22.7829  -13.6697    0.0000 N   0  0  0  0  0  0  0  0  0  0  0  0
   24.9560  -12.5481    0.0000 O   0  0  0  0  0  0  0  0  0  0  0  0
   16.9645  -16.8243    0.0000 H   0  0  0  0  0  0  0  0  0  0  0  0
   14.8614  -13.2491    0.0000 H   0  0  0  0  0  0  0  0  0  0  0  0
   25.6570  -11.3564    0.0000 C   0  0  0  0  0  0  0  0  0  0  0  0
   25.1300  -19.8100    0.0000 S   0  0  0  0  0  0  0  0  0  0  0  0
   23.7300  -19.8100    0.0000 O   0  0  0  0  0  0  0  0  0  0  0  0
   26.5300  -19.8100    0.0000 O   0  0  0  0  0  0  0  0  0  0  0  0
   25.1300  -18.4100    0.0000 O   0  0  0  0  0  0  0  0  0  0  0  0
   25.1300  -21.2100    0.0000 O   0  0  0  0  0  0  0  0  0  0  0  0
  1  2  2  0     0  0
  2  3  1  0     0  0
  3  4  2  0     0  0
  4  5  1  0     0  0
  5  6  2  0     0  0
  1  6  1  0     0  0
  4  7  1  0     0  0
  7  8  2  0     0  0
  8  9  1  0     0  0
  5  9  1  0     0  0
  3 10  1  0     0  0
 10 11  1  0     0  0
 12 10  1  1     0  0
 12 13  1  0     0  0
 13 14  1  0     0  0
 14 15  1  0     0  0
 15 16  1  0     0  0
 12 16  1  0     0  0
 14 17  1  0     0  0
 17 18  1  0     0  0
 18 19  1  0     0  0
 15 19  1  0     0  0
 18 20  1  0     0  0
 20 21  1  0     0  0
 20 22  2  0     0  0
 21 23  1  0     0  0
 23 24  1  0     0  0
 24 25  1  0     0  0
 25 26  2  0     0  0
 26 27  1  0     0  0
 23 27  2  0     0  0
 26 28  1  0     0  0
 15 29  1  1     0  0
 14 30  1  1     0  0
 28 31  1  0     0  0
 32 33  1  0     0  0
 32 34  1  0     0  0
 32 35  2  0     0  0
 32 36  2  0     0  0
M  END
