 
 
 
 42 45  0  0  1  0  0  0  0  0999 V2000
    4.9000  -15.4000    0.0000 C   0  0  0  0  0  0  0  0  0  0  0  0
    6.1124  -14.7000    0.0000 C   0  0  0  0  0  0  0  0  0  0  0  0
    7.3249  -15.4000    0.0000 C   0  0  0  0  0  0  0  0  0  0  0  0
    8.5373  -14.7000    0.0000 N   0  0  0  0  0  0  0  0  0  0  0  0
    9.7497  -15.4000    0.0000 C   0  0  0  0  0  0  0  0  0  0  0  0
   10.9622  -14.7000    0.0000 C   0  0  0  0  0  0  0  0  0  0  0  0
   12.1746  -15.4000    0.0000 C   0  0  0  0  0  0  0  0  0  0  0  0
   13.3911  -14.6977    0.0000 O   0  0  0  0  0  0  0  0  0  0  0  0
   14.5886  -15.3892    0.0000 C   0  0  0  0  0  0  0  0  0  0  0  0
    3.6876  -14.7000    0.0000 C   0  0  0  0  0  0  0  0  0  0  0  0
    2.4751  -15.4000    0.0000 C   0  0  0  0  0  0  0  0  0  0  0  0
    2.4751  -16.8000    0.0000 C   0  0  0  0  0  0  0  0  0  0  0  0
    3.6876  -17.5000    0.0000 C   0  0  0  0  0  0  0  0  0  0  0  0
    4.9000  -16.8000    0.0000 C   0  0  0  0  0  0  0  0  0  0  0  0
    6.1124  -13.3002    0.0000 C   0  0  0  0  0  0  0  0  0  0  0  0
    7.3080  -12.6097    0.0000 C   0  0  0  0  0  0  0  0  0  0  0  0
    7.3078  -11.2097    0.0000 C   0  0  0  0  0  0  0  0  0  0  0  0
    6.0953  -10.5099    0.0000 C   0  0  0  0  0  0  0  0  0  0  0  0
    4.8998  -11.2003    0.0000 C   0  0  0  0  0  0  0  0  0  0  0  0
    4.8999  -12.6003    0.0000 C   0  0  0  0  0  0  0  0  0  0  0  0
    8.5373  -13.3000    0.0000 C   0  0  0  0  0  0  0  0  0  0  0  0
    9.7518  -12.5988    0.0000 C   0  0  0  0  0  0  0  0  0  0  0  0
   10.9483  -13.2898    0.0000 C   0  0  0  0  0  0  0  0  0  0  0  0
   12.1608  -12.5899    0.0000 C   0  0  0  0  0  0  0  0  0  0  0  0
   12.1609  -11.1899    0.0000 C   0  0  0  0  0  0  0  0  0  0  0  0
   10.9644  -10.4990    0.0000 C   0  0  0  0  0  0  0  0  0  0  0  0
    9.7519  -11.1988    0.0000 C   0  0  0  0  0  0  0  0  0  0  0  0
    8.5238  -10.4894    0.0000 Cl  0  0  0  0  0  0  0  0  0  0  0  0
   10.9646   -9.1002    0.0000 C   0  0  0  0  0  0  0  0  0  0  0  0
   10.9646   -7.7002    0.0000 F   0  0  0  0  0  0  0  0  0  0  0  0
    9.5646   -9.1002    0.0000 F   0  0  0  0  0  0  0  0  0  0  0  0
   12.3646   -9.1002    0.0000 F   0  0  0  0  0  0  0  0  0  0  0  0
   14.5887  -16.7997    0.0000 C   0  0  0  0  0  0  0  0  0  0  0  0
   15.8011  -17.4996    0.0000 C   0  0  0  0  0  0  0  0  0  0  0  0
   17.0135  -16.7996    0.0000 C   0  0  0  0  0  0  0  0  0  0  0  0
   17.0135  -15.3891    0.0000 C   0  0  0  0  0  0  0  0  0  0  0  0
   15.8010  -14.6892    0.0000 C   0  0  0  0  0  0  0  0  0  0  0  0
    9.7497  -16.7999    0.0000 C   0  0  0  0  0  0  0  0  0  0  0  0
   18.2186  -14.6933    0.0000 C   0  0  0  0  0  0  0  0  0  0  0  0
   19.4198  -15.3870    0.0000 C   0  0  0  0  0  0  0  0  0  0  0  0
   20.6043  -14.7032    0.0000 O   0  0  0  0  0  0  0  0  0  0  0  0
   19.4200  -16.7997    0.0000 O   0  0  0  0  0  0  0  0  0  0  0  0
  1  2  1  0     0  0
  2  3  1  0     0  0
  3  4  1  0     0  0
  4  5  1  0     0  0
  5  6  1  0     0  0
  6  7  1  0     0  0
  7  8  1  0     0  0
  8  9  1  0     0  0
  1 10  2  0     0  0
 10 11  1  0     0  0
 11 12  2  0     0  0
 12 13  1  0     0  0
 13 14  2  0     0  0
  1 14  1  0     0  0
  2 15  1  0     0  0
 15 16  2  0     0  0
 16 17  1  0     0  0
 17 18  2  0     0  0
 18 19  1  0     0  0
 19 20  2  0     0  0
 15 20  1  0     0  0
  4 21  1  0     0  0
 21 22  1  0     0  0
 22 23  2  0     0  0
 23 24  1  0     0  0
 24 25  2  0     0  0
 25 26  1  0     0  0
 26 27  2  0     0  0
 22 27  1  0     0  0
 27 28  1  0     0  0
 26 29  1  0     0  0
 29 30  1  0     0  0
 29 31  1  0     0  0
 29 32  1  0     0  0
  9 33  2  0     0  0
 33 34  1  0     0  0
 34 35  2  0     0  0
 35 36  1  0     0  0
 36 37  2  0     0  0
  9 37  1  0     0  0
  5 38  1  1     0  0
 36 39  1  0     0  0
 39 40  1  0     0  0
 40 41  1  0     0  0
 40 42  2  0     0  0
M  END
