 
 
 
 33 34  0  0  1  0  0  0  0  0999 V2000
   18.5852  -17.5370    0.0000 N   0  0  0  0  0  0  0  0  0  0  0  0
   18.5852  -19.0043    0.0000 C   0  0  0  0  0  0  0  0  0  0  0  0
   19.7730  -19.7030    0.0000 C   0  0  0  0  0  0  0  0  0  0  0  0
   20.9607  -19.0043    0.0000 C   0  0  0  0  0  0  0  0  0  0  0  0
   20.9607  -17.5370    0.0000 C   0  0  0  0  0  0  0  0  0  0  0  0
   19.7730  -16.8384    0.0000 C   0  0  0  0  0  0  0  0  0  0  0  0
   17.3276  -16.8384    0.0000 C   0  0  0  0  0  0  0  0  0  0  0  0
   16.1398  -17.5370    0.0000 C   0  0  0  0  0  0  0  0  0  0  0  0
   14.9520  -16.9082    0.0000 C   0  0  0  0  0  0  0  0  0  0  0  0
   13.7643  -17.6069    0.0000 C   0  0  0  0  0  0  0  0  0  0  0  0
   13.7643  -19.0043    0.0000 C   0  0  0  0  0  0  0  0  0  0  0  0
   14.9520  -19.6331    0.0000 C   0  0  0  0  0  0  0  0  0  0  0  0
   16.1398  -18.9344    0.0000 C   0  0  0  0  0  0  0  0  0  0  0  0
   14.6726  -15.5108    0.0000 C   0  0  0  0  0  0  0  0  0  0  0  0
   13.2752  -15.3711    0.0000 C   0  0  0  0  0  0  0  0  0  0  0  0
   12.7162  -16.6287    0.0000 N   0  0  0  0  0  0  0  0  0  0  0  0
   22.2184  -19.7030    0.0000 O   0  0  0  0  0  0  0  0  0  0  0  0
   23.4061  -19.0043    0.0000 C   0  0  0  0  0  0  0  0  0  0  0  0
   24.5939  -19.7030    0.0000 C   0  0  0  0  0  0  0  0  0  0  0  0
   19.7730  -15.4410    0.0000 C   0  0  0  0  0  0  0  0  0  0  0  0
   20.9607  -14.8122    0.0000 C   0  0  0  0  0  0  0  0  0  0  0  0
   20.9607  -13.3449    0.0000 C   0  0  0  0  0  0  0  0  0  0  0  0
   19.7730  -12.6462    0.0000 C   0  0  0  0  0  0  0  0  0  0  0  0
   18.5852  -13.3449    0.0000 C   0  0  0  0  0  0  0  0  0  0  0  0
   18.5852  -14.7423    0.0000 C   0  0  0  0  0  0  0  0  0  0  0  0
   19.7730  -11.2489    0.0000 C   0  0  0  0  0  0  0  0  0  0  0  0
   18.5153  -10.5502    0.0000 O   0  0  0  0  0  0  0  0  0  0  0  0
   20.9607  -10.5502    0.0000 O   0  0  0  0  0  0  0  0  0  0  0  0
   17.3974  -19.7030    0.0000 O   0  0  0  0  0  0  0  0  0  0  0  0
   17.3974  -21.1003    0.0000 C   0  0  0  0  0  0  0  0  0  0  0  0
   16.1398  -21.7990    0.0000 C   0  0  0  0  0  0  0  0  0  0  0  0
   25.4100  -13.3000    0.0000 Cl  0  0  0  0  0  0  0  0  0  0  0  0
   25.7600  -16.5200    0.0000 O   0  0  0  0  0  0  0  0  0  0  0  0
  1  2  1  0     0  0
  2  3  1  0     0  0
  3  4  1  0     0  0
  4  5  1  0     0  0
  5  6  1  0     0  0
  1  6  1  0     0  0
  1  7  1  0     0  0
  7  8  1  0     0  0
  8  9  2  0     0  0
  9 10  1  0     0  0
 10 11  2  0     0  0
 11 12  1  0     0  0
 12 13  2  0     0  0
  8 13  1  0     0  0
  9 14  1  0     0  0
 14 15  2  0     0  0
 15 16  1  0     0  0
 10 16  1  0     0  0
  4 17  1  1     0  0
 17 18  1  0     0  0
 18 19  1  0     0  0
  6 20  1  6     0  0
 20 21  2  0     0  0
 21 22  1  0     0  0
 22 23  2  0     0  0
 23 24  1  0     0  0
 24 25  2  0     0  0
 20 25  1  0     0  0
 23 26  1  0     0  0
 26 27  1  0     0  0
 26 28  2  0     0  0
 13 29  1  0     0  0
 29 30  1  0     0  0
 30 31  1  0     0  0
M  END
