 
 
 
 23 24  0  0  1  0  0  0  0  0999 V2000
   15.4649  -17.4942    0.0000 C   0  0  0  0  0  0  0  0  0  0  0  0
   15.4649  -18.8937    0.0000 C   0  0  0  0  0  0  0  0  0  0  0  0
   16.6545  -19.5935    0.0000 C   0  0  0  0  0  0  0  0  0  0  0  0
   17.8441  -18.8937    0.0000 C   0  0  0  0  0  0  0  0  0  0  0  0
   17.8441  -17.4942    0.0000 C   0  0  0  0  0  0  0  0  0  0  0  0
   16.6545  -16.8644    0.0000 C   0  0  0  0  0  0  0  0  0  0  0  0
   20.1533  -18.8937    0.0000 C   0  0  0  0  0  0  0  0  0  0  0  0
   20.1533  -17.4942    0.0000 C   0  0  0  0  0  0  0  0  0  0  0  0
   18.9637  -16.8644    0.0000 C   0  0  0  0  0  0  0  0  0  0  0  0
   21.3429  -19.5935    0.0000 C   0  0  0  0  0  0  0  0  0  0  0  0
   22.5325  -18.8937    0.0000 C   0  0  0  0  0  0  0  0  0  0  0  0
   22.5325  -17.4942    0.0000 C   0  0  0  0  0  0  0  0  0  0  0  0
   21.3429  -16.8644    0.0000 C   0  0  0  0  0  0  0  0  0  0  0  0
   18.9637  -15.4649    0.0000 C   0  0  0  0  0  0  0  0  0  0  0  0
   20.1533  -14.7651    0.0000 C   0  0  0  0  0  0  0  0  0  0  0  0
   17.0044  -15.7448    0.0000 C   0  0  0  0  0  0  0  0  0  0  0  0
   21.3429  -15.4649    0.0000 C   0  0  0  0  0  0  0  0  0  0  0  0
   20.1533  -13.5055    0.0000 N   0  0  0  0  0  0  0  0  0  0  0  0
   21.3429  -12.8058    0.0000 C   0  0  0  0  0  0  0  0  0  0  0  0
   18.9637  -12.8058    0.0000 C   0  0  0  0  0  0  0  0  0  0  0  0
   17.0044  -14.4152    0.0000 O   0  0  0  0  0  0  0  0  0  0  0  0
   15.8148  -16.4445    0.0000 C   0  0  0  0  0  0  0  0  0  0  0  0
   14.6951  -15.7448    0.0000 C   0  0  0  0  0  0  0  0  0  0  0  0
  1  2  2  0     0  0
  2  3  1  0     0  0
  3  4  2  0     0  0
  4  5  1  0     0  0
  5  6  2  0     0  0
  1  6  1  0     0  0
  7  8  1  0     0  0
  8  9  1  0     0  0
  5  9  1  0     0  0
  7 10  2  0     0  0
 10 11  1  0     0  0
 11 12  2  0     0  0
 12 13  1  0     0  0
  8 13  2  0     0  0
  9 14  1  0     0  0
 14 15  1  0     0  0
  9 16  1  0     0  0
 15 17  1  1     0  0
 15 18  1  0     0  0
 18 19  1  0     0  0
 18 20  1  0     0  0
 16 21  2  0     0  0
 16 22  1  0     0  0
 22 23  1  0     0  0
M  END
