 
 
 
 33 35  0  0  1  0  0  0  0  0999 V2000
   16.1700  -10.0800    0.0000 C   0  0  0  0  0  0  0  0  0  0  0  0
   16.1700  -11.4800    0.0000 C   0  0  0  0  0  0  0  0  0  0  0  0
   17.3600  -12.1800    0.0000 C   0  0  0  0  0  0  0  0  0  0  0  0
   18.6200  -11.4800    0.0000 C   0  0  0  0  0  0  0  0  0  0  0  0
   18.6200  -10.0800    0.0000 C   0  0  0  0  0  0  0  0  0  0  0  0
   17.3600   -9.3800    0.0000 C   0  0  0  0  0  0  0  0  0  0  0  0
   19.8100   -9.3800    0.0000 O   0  0  0  0  0  0  0  0  0  0  0  0
   21.0000  -10.0800    0.0000 C   0  0  0  0  0  0  0  0  0  0  0  0
   22.1900   -9.3800    0.0000 C   0  0  0  0  0  0  0  0  0  0  0  0
   23.3800  -10.0800    0.0000 C   0  0  0  0  0  0  0  0  0  0  0  0
   24.5700   -9.3800    0.0000 C   0  0  0  0  0  0  0  0  0  0  0  0
   25.7600  -10.0800    0.0000 C   0  0  0  0  0  0  0  0  0  0  0  0
   26.9500   -9.3800    0.0000 C   0  0  0  0  0  0  0  0  0  0  0  0
   28.1400  -10.0800    0.0000 O   0  0  0  0  0  0  0  0  0  0  0  0
   26.9500   -7.9800    0.0000 O   0  0  0  0  0  0  0  0  0  0  0  0
   19.8100  -12.1800    0.0000 C   0  0  0  0  0  0  0  0  0  0  0  0
   24.5700   -7.9800    0.0000 C   0  0  0  0  0  0  0  0  0  0  0  0
   19.8100  -13.5800    0.0000 N   0  0  0  0  0  0  0  0  0  0  0  0
   20.9300  -14.4200    0.0000 C   0  0  0  0  0  0  0  0  0  0  0  0
   20.5100  -15.7500    0.0000 C   0  0  0  0  0  0  0  0  0  0  0  0
   19.0400  -15.7500    0.0000 N   0  0  0  0  0  0  0  0  0  0  0  0
   18.6200  -14.4200    0.0000 C   0  0  0  0  0  0  0  0  0  0  0  0
   17.2900  -14.0000    0.0000 C   0  0  0  0  0  0  0  0  0  0  0  0
   16.2400  -14.9100    0.0000 C   0  0  0  0  0  0  0  0  0  0  0  0
   14.9100  -14.4900    0.0000 C   0  0  0  0  0  0  0  0  0  0  0  0
   14.6300  -13.1600    0.0000 C   0  0  0  0  0  0  0  0  0  0  0  0
   15.6800  -12.1800    0.0000 C   0  0  0  0  0  0  0  0  0  0  0  0
   17.0100  -12.6000    0.0000 C   0  0  0  0  0  0  0  0  0  0  0  0
   13.3000  -12.7400    0.0000 C   0  0  0  0  0  0  0  0  0  0  0  0
   11.9700  -12.3200    0.0000 F   0  0  0  0  0  0  0  0  0  0  0  0
   13.7200  -11.4100    0.0000 F   0  0  0  0  0  0  0  0  0  0  0  0
   12.8800  -14.0700    0.0000 F   0  0  0  0  0  0  0  0  0  0  0  0
   22.2600  -14.0000    0.0000 C   0  0  0  0  0  0  0  0  0  0  0  0
  1  2  2  0     0  0
  2  3  1  0     0  0
  3  4  2  0     0  0
  4  5  1  0     0  0
  5  6  2  0     0  0
  1  6  1  0     0  0
  5  7  1  0     0  0
  7  8  1  0     0  0
  8  9  1  0     0  0
  9 10  1  0     0  0
 10 11  1  0     0  0
 11 12  1  0     0  0
 12 13  1  0     0  0
 13 14  1  0     0  0
 13 15  2  0     0  0
  4 16  1  0     0  0
 11 17  1  1     0  0
 16 18  1  0     0  0
 18 19  1  0     0  0
 19 20  2  0     0  0
 20 21  1  0     0  0
 21 22  2  0     0  0
 18 22  1  0     0  0
 22 23  1  0     0  0
 23 24  2  0     0  0
 24 25  1  0     0  0
 25 26  2  0     0  0
 26 27  1  0     0  0
 27 28  2  0     0  0
 23 28  1  0     0  0
 26 29  1  0     0  0
 29 30  1  0     0  0
 29 31  1  0     0  0
 29 32  1  0     0  0
 19 33  1  0     0  0
M  END
