 
 
 
 27 29  0  0  1  0  0  0  0  0999 V2000
   17.1759  -16.4779    0.0000 C   0  0  0  0  0  0  0  0  0  0  0  0
   16.3343  -15.3559    0.0000 C   0  0  0  0  0  0  0  0  0  0  0  0
   16.6849  -14.0237    0.0000 C   0  0  0  0  0  0  0  0  0  0  0  0
   17.9471  -13.3225    0.0000 C   0  0  0  0  0  0  0  0  0  0  0  0
   18.5781  -16.4779    0.0000 N   0  0  0  0  0  0  0  0  0  0  0  0
   19.1391  -14.0237    0.0000 C   0  0  0  0  0  0  0  0  0  0  0  0
   19.4196  -15.4261    0.0000 C   0  0  0  0  0  0  0  0  0  0  0  0
   16.4747  -17.7399    0.0000 C   0  0  0  0  0  0  0  0  0  0  0  0
   17.1759  -18.9320    0.0000 C   0  0  0  0  0  0  0  0  0  0  0  0
   15.0723  -17.7399    0.0000 C   0  0  0  0  0  0  0  0  0  0  0  0
   14.3711  -18.9320    0.0000 C   0  0  0  0  0  0  0  0  0  0  0  0
   15.0723  -20.1941    0.0000 C   0  0  0  0  0  0  0  0  0  0  0  0
   16.4747  -20.1941    0.0000 C   0  0  0  0  0  0  0  0  0  0  0  0
   20.1208  -13.0421    0.0000 O   0  0  0  0  0  0  0  0  0  0  0  0
   19.5599  -11.7799    0.0000 N   0  0  0  0  0  0  0  0  0  0  0  0
   18.1575  -11.9903    0.0000 C   0  0  0  0  0  0  0  0  0  0  0  0
   17.1759  -11.0086    0.0000 C   0  0  0  0  0  0  0  0  0  0  0  0
   14.3711  -21.3861    0.0000 Cl  0  0  0  0  0  0  0  0  0  0  0  0
   20.8220  -15.7767    0.0000 C   0  0  0  0  0  0  0  0  0  0  0  0
   22.0140  -15.0755    0.0000 C   0  0  0  0  0  0  0  0  0  0  0  0
   23.2060  -15.7767    0.0000 N   0  0  0  0  0  0  0  0  0  0  0  0
   22.0140  -13.6731    0.0000 O   0  0  0  0  0  0  0  0  0  0  0  0
   15.6884  -13.0360    0.0000 C   0  0  0  0  0  0  0  0  0  0  0  0
   14.3346  -13.4052    0.0000 C   0  0  0  0  0  0  0  0  0  0  0  0
   13.9840  -14.7374    0.0000 C   0  0  0  0  0  0  0  0  0  0  0  0
   14.9807  -15.7251    0.0000 C   0  0  0  0  0  0  0  0  0  0  0  0
   21.3500  -20.7900    0.0000 O   0  0  0  0  0  0  0  0  0  0  0  0
  3  4  1  0     0  0
  1  5  2  0     0  0
  4  6  2  0     0  0
  5  7  1  0     0  0
  1  2  1  0     0  0
  6  7  1  0     0  0
  1  8  1  0     0  0
  8  9  1  0     0  0
  8 10  2  0     0  0
 10 11  1  0     0  0
 11 12  2  0     0  0
 12 13  1  0     0  0
  9 13  2  0     0  0
  6 14  1  0     0  0
 14 15  1  0     0  0
 15 16  2  0     0  0
  4 16  1  0     0  0
 16 17  1  0     0  0
 12 18  1  0     0  0
  7 19  1  6     0  0
 19 20  1  0     0  0
 20 21  1  0     0  0
 20 22  2  0     0  0
  2  3  1  0     0  0
  3 23  2  0     0  0
 23 24  1  0     0  0
 24 25  2  0     0  0
 25 26  1  0     0  0
  2 26  2  0     0  0
M  END
