 
 
 
 91 99  0  0  1  0  0  0  0  0999 V2000
   16.3100  -16.3800    0.0000 C   0  0  0  0  0  0  0  0  0  0  0  0
   16.3100  -17.7800    0.0000 C   0  0  0  0  0  0  0  0  0  0  0  0
   17.5000  -18.4800    0.0000 C   0  0  0  0  0  0  0  0  0  0  0  0
   18.7600  -17.7800    0.0000 C   0  0  0  0  0  0  0  0  0  0  0  0
   18.7600  -16.3800    0.0000 C   0  0  0  0  0  0  0  0  0  0  0  0
   17.5000  -15.6800    0.0000 C   0  0  0  0  0  0  0  0  0  0  0  0
   19.9500  -15.6800    0.0000 C   0  0  0  0  0  0  0  0  0  0  0  0
   21.1400  -16.3800    0.0000 C   0  0  0  0  0  0  0  0  0  0  0  0
   15.1200  -15.6800    0.0000 C   0  0  0  0  0  0  0  0  0  0  0  0
   13.9300  -16.3800    0.0000 C   0  0  0  0  0  0  0  0  0  0  0  0
   12.7400  -15.6800    0.0000 C   0  0  0  0  0  0  0  0  0  0  0  0
   11.5500  -16.3800    0.0000 N   0  3  0  0  0  0  0  0  0  0  0  0
   11.5500  -17.7800    0.0000 C   0  0  0  0  0  0  0  0  0  0  0  0
   10.8500  -14.4900    0.0000 C   0  0  0  0  0  0  0  0  0  0  0  0
   10.5000  -15.8200    0.0000 C   0  0  0  0  0  0  0  0  0  0  0  0
   12.2500  -14.4200    0.0000 C   0  0  0  0  0  0  0  0  0  0  0  0
   10.3600  -18.4800    0.0000 C   0  0  0  0  0  0  0  0  0  0  0  0
    9.1700  -17.7800    0.0000 C   0  0  0  0  0  0  0  0  0  0  0  0
    7.9800  -18.4800    0.0000 C   0  0  0  0  0  0  0  0  0  0  0  0
    6.7900  -17.7800    0.0000 S   0  0  0  0  0  0  0  0  0  0  0  0
    5.5300  -17.0800    0.0000 O   0  0  0  0  0  0  0  0  0  0  0  0
    7.4900  -16.5900    0.0000 O   0  0  0  0  0  0  0  0  0  0  0  0
    6.0900  -18.9700    0.0000 O   0  0  0  0  0  0  0  0  0  0  0  0
    9.8700  -13.5100    0.0000 C   0  0  0  0  0  0  0  0  0  0  0  0
    8.4700  -13.8600    0.0000 C   0  0  0  0  0  0  0  0  0  0  0  0
    8.1200  -15.1900    0.0000 C   0  0  0  0  0  0  0  0  0  0  0  0
    9.1700  -16.1700    0.0000 C   0  0  0  0  0  0  0  0  0  0  0  0
    7.4900  -12.8800    0.0000 S   0  0  0  0  0  0  0  0  0  0  0  0
    6.5100  -11.9000    0.0000 O   0  0  0  0  0  0  0  0  0  0  0  0
    6.5100  -13.8600    0.0000 O   0  0  0  0  0  0  0  0  0  0  0  0
    8.4700  -11.9000    0.0000 O   0  0  0  0  0  0  0  0  0  0  0  0
   13.0200  -13.2300    0.0000 C   0  0  0  0  0  0  0  0  0  0  0  0
   11.5500  -13.2300    0.0000 C   0  0  0  0  0  0  0  0  0  0  0  0
   22.3300  -15.6800    0.0000 C   0  0  0  0  0  0  0  0  0  0  0  0
   23.5200  -16.3800    0.0000 N   0  0  0  0  0  0  0  0  0  0  0  0
   22.5400  -14.3500    0.0000 C   0  0  0  0  0  0  0  0  0  0  0  0
   24.5700  -15.4000    0.0000 C   0  0  0  0  0  0  0  0  0  0  0  0
   23.9400  -14.1400    0.0000 C   0  0  0  0  0  0  0  0  0  0  0  0
   23.5200  -17.7800    0.0000 C   0  0  0  0  0  0  0  0  0  0  0  0
   24.7324  -18.4800    0.0000 C   0  0  0  0  0  0  0  0  0  0  0  0
   25.9279  -17.7896    0.0000 C   0  0  0  0  0  0  0  0  0  0  0  0
   27.1153  -18.4751    0.0000 C   0  0  0  0  0  0  0  0  0  0  0  0
   28.3065  -17.7871    0.0000 S   0  0  0  0  0  0  0  0  0  0  0  0
   29.5189  -17.0871    0.0000 O   0  0  0  0  0  0  0  0  0  0  0  0
   27.6065  -16.5747    0.0000 O   0  0  0  0  0  0  0  0  0  0  0  0
   29.0065  -18.9995    0.0000 O   0  0  0  0  0  0  0  0  0  0  0  0
   25.9675  -15.4839    0.0000 C   0  0  0  0  0  0  0  0  0  0  0  0
   26.7389  -14.3156    0.0000 C   0  0  0  0  0  0  0  0  0  0  0  0
   26.1089  -13.0556    0.0000 C   0  0  0  0  0  0  0  0  0  0  0  0
   24.7114  -12.9717    0.0000 C   0  0  0  0  0  0  0  0  0  0  0  0
   21.5539  -13.3562    0.0000 C   0  0  0  0  0  0  0  0  0  0  0  0
   21.2078  -14.7804    0.0000 C   0  0  0  0  0  0  0  0  0  0  0  0
   26.8650  -11.9110    0.0000 S   0  0  0  0  0  0  0  0  0  0  0  0
   27.5650  -10.6986    0.0000 O   0  0  0  0  0  0  0  0  0  0  0  0
   25.6526  -11.2110    0.0000 O   0  0  0  0  0  0  0  0  0  0  0  0
   28.0775  -12.6110    0.0000 O   0  0  0  0  0  0  0  0  0  0  0  0
   17.4828  -14.2801    0.0000 O   0  0  0  0  0  0  0  0  0  0  0  0
   17.4828  -12.8801    0.0000 C   0  0  0  0  0  0  0  0  0  0  0  0
   18.7081  -12.1725    0.0000 C   0  0  0  0  0  0  0  0  0  0  0  0
   18.7080  -10.7725    0.0000 C   0  0  0  0  0  0  0  0  0  0  0  0
   17.4955  -10.0726    0.0000 C   0  0  0  0  0  0  0  0  0  0  0  0
   16.2702  -10.7802    0.0000 C   0  0  0  0  0  0  0  0  0  0  0  0
   16.2703  -12.1802    0.0000 C   0  0  0  0  0  0  0  0  0  0  0  0
   17.4955   -8.6800    0.0000 C   0  0  0  0  0  0  0  0  0  0  0  0
   16.2864   -7.9820    0.0000 C   0  0  0  0  0  0  0  0  0  0  0  0
   15.0927   -8.6715    0.0000 C   0  0  0  0  0  0  0  0  0  0  0  0
   16.2862   -6.5802    0.0000 N   0  0  0  0  0  0  0  0  0  0  0  0
   15.0916   -5.8905    0.0000 C   0  0  0  0  0  0  0  0  0  0  0  0
   13.9050   -6.5756    0.0000 C   0  0  0  0  0  0  0  0  0  0  0  0
   15.0913   -4.4803    0.0000 O   0  0  0  0  0  0  0  0  0  0  0  0
   12.7133   -5.8875    0.0000 C   0  0  0  0  0  0  0  0  0  0  0  0
   11.5008   -6.5875    0.0000 C   0  0  0  0  0  0  0  0  0  0  0  0
   11.5008   -7.9875    0.0000 C   0  0  0  0  0  0  0  0  0  0  0  0
   12.6925   -8.6756    0.0000 C   0  0  0  0  0  0  0  0  0  0  0  0
   13.9050   -7.9756    0.0000 C   0  0  0  0  0  0  0  0  0  0  0  0
   10.2761   -8.6946    0.0000 N   0  0  0  0  0  0  0  0  0  0  0  0
    9.0679   -7.9971    0.0000 C   0  0  0  0  0  0  0  0  0  0  0  0
    7.8870   -8.6790    0.0000 C   0  0  0  0  0  0  0  0  0  0  0  0
    6.6923   -7.9892    0.0000 N   0  0  0  0  0  0  0  0  0  0  0  0
    5.4798   -8.6891    0.0000 C   0  0  0  0  0  0  0  0  0  0  0  0
    5.4798  -10.0891    0.0000 C   0  0  0  0  0  0  0  0  0  0  0  0
    6.6744  -10.7789    0.0000 N   0  0  0  0  0  0  0  0  0  0  0  0
    7.8869  -10.0790    0.0000 C   0  0  0  0  0  0  0  0  0  0  0  0
    4.2674   -7.9891    0.0000 C   0  0  0  0  0  0  0  0  0  0  0  0
    3.0550   -8.6890    0.0000 N   0  0  0  0  0  0  0  0  0  0  0  0
    3.0549  -10.0890    0.0000 C   0  0  0  0  0  0  0  0  0  0  0  0
    4.2673  -10.7891    0.0000 N   0  0  0  0  0  0  0  0  0  0  0  0
    4.2675   -6.5800    0.0000 O   0  0  0  0  0  0  0  0  0  0  0  0
    1.8652  -10.7759    0.0000 N   0  0  0  0  0  0  0  0  0  0  0  0
   13.8802   -9.3715    0.0000 O   0  5  0  0  0  0  0  0  0  0  0  0
   15.8030   -9.9021    0.0000 O   0  0  0  0  0  0  0  0  0  0  0  0
  1  2  1  0     0  0
  2  3  1  0     0  0
  3  4  1  0     0  0
  4  5  1  0     0  0
  5  6  1  0     0  0
  1  6  2  0     0  0
  5  7  2  0     0  0
  7  8  1  0     0  0
  1  9  1  0     0  0
  9 10  2  0     0  0
 10 11  1  0     0  0
 11 12  2  0     0  0
 12 13  1  0     0  0
 14 15  1  0     0  0
 15 12  1  0     0  0
 11 16  1  0     0  0
 14 16  1  0     0  0
 13 17  1  0     0  0
 17 18  1  0     0  0
 18 19  1  0     0  0
 19 20  1  0     0  0
 20 21  1  0     0  0
 20 22  2  0     0  0
 20 23  2  0     0  0
 14 24  2  0     0  0
 24 25  1  0     0  0
 25 26  2  0     0  0
 26 27  1  0     0  0
 15 27  2  0     0  0
 25 28  1  0     0  0
 28 29  1  0     0  0
 28 30  2  0     0  0
 28 31  2  0     0  0
 16 32  1  0     0  0
 16 33  1  0     0  0
  8 34  2  0     0  0
 34 35  1  0     0  0
 36 34  1  0     0  0
 35 37  1  0     0  0
 37 38  1  0     0  0
 36 38  1  0     0  0
 35 39  1  0     0  0
 39 40  1  0     0  0
 40 41  1  0     0  0
 41 42  1  0     0  0
 42 43  1  0     0  0
 43 44  1  0     0  0
 43 45  2  0     0  0
 43 46  2  0     0  0
 37 47  2  0     0  0
 47 48  1  0     0  0
 48 49  2  0     0  0
 49 50  1  0     0  0
 38 50  2  0     0  0
 36 51  1  0     0  0
 36 52  1  0     0  0
 49 53  1  0     0  0
 53 54  1  0     0  0
 53 55  2  0     0  0
 53 56  2  0     0  0
  6 57  1  0     0  0
 57 58  1  0     0  0
 58 59  2  0     0  0
 59 60  1  0     0  0
 60 61  2  0     0  0
 61 62  1  0     0  0
 62 63  2  0     0  0
 58 63  1  0     0  0
 61 64  1  0     0  0
 64 65  1  0     0  0
 65 66  1  1     0  0
 65 67  1  0     0  0
 67 68  1  0     0  0
 68 69  1  0     0  0
 68 70  2  0     0  0
 69 71  2  0     0  0
 71 72  1  0     0  0
 72 73  2  0     0  0
 73 74  1  0     0  0
 74 75  2  0     0  0
 69 75  1  0     0  0
 73 76  1  0     0  0
 76 77  1  0     0  0
 77 78  1  0     0  0
 78 79  2  0     0  0
 79 80  1  0     0  0
 80 81  2  0     0  0
 81 82  1  0     0  0
 82 83  2  0     0  0
 78 83  1  0     0  0
 80 84  1  0     0  0
 84 85  1  0     0  0
 85 86  1  0     0  0
 86 87  2  0     0  0
 81 87  1  0     0  0
 84 88  2  0     0  0
 86 89  1  0     0  0
 66 90  1  0     0  0
 66 91  2  0     0  0
M  CHG  2  12   1  90  -1
M  END
