 
 
 
 85 90  0  0  1  0  0  0  0  0999 V2000
    7.0700  -17.8500    0.0000 C   0  0  0  0  0  0  0  0  0  0  0  0
    8.2600  -18.5500    0.0000 C   0  0  0  0  0  0  0  0  0  0  0  0
    9.4500  -17.8500    0.0000 O   0  0  0  0  0  0  0  0  0  0  0  0
   10.6400  -18.5500    0.0000 C   0  0  0  0  0  0  0  0  0  0  0  0
   11.8300  -17.8500    0.0000 C   0  0  0  0  0  0  0  0  0  0  0  0
   13.0200  -18.5500    0.0000 N   0  0  0  0  0  0  0  0  0  0  0  0
    8.2600  -19.8800    0.0000 C   0  0  0  0  0  0  0  0  0  0  0  0
   10.6400  -19.8800    0.0000 O   0  0  0  0  0  0  0  0  0  0  0  0
   11.8300  -16.4500    0.0000 C   0  0  0  0  0  0  0  0  0  0  0  0
   18.5500  -18.4100    0.0000 C   0  0  0  0  0  0  0  0  0  0  0  0
   19.0400  -19.7400    0.0000 C   0  0  0  0  0  0  0  0  0  0  0  0
   20.4400  -19.7400    0.0000 C   0  0  0  0  0  0  0  0  0  0  0  0
   20.7900  -18.3400    0.0000 C   0  0  0  0  0  0  0  0  0  0  0  0
   19.6700  -17.5000    0.0000 O   0  0  0  0  0  0  0  0  0  0  0  0
   14.7700  -17.8500    0.0000 P   0  0  0  0  0  0  0  0  0  0  0  0
   13.5800  -17.1500    0.0000 O   0  0  0  0  0  0  0  0  0  0  0  0
   15.9600  -17.1500    0.0000 O   0  0  0  0  0  0  0  0  0  0  0  0
   15.9600  -15.7500    0.0000 C   0  0  0  0  0  0  0  0  0  0  0  0
   17.1500  -15.0500    0.0000 C   0  0  0  0  0  0  0  0  0  0  0  0
   17.1500  -13.7200    0.0000 C   0  0  0  0  0  0  0  0  0  0  0  0
   15.9600  -13.0200    0.0000 C   0  0  0  0  0  0  0  0  0  0  0  0
   14.7700  -13.7200    0.0000 C   0  0  0  0  0  0  0  0  0  0  0  0
   14.7700  -15.0500    0.0000 C   0  0  0  0  0  0  0  0  0  0  0  0
   16.1700  -18.5500    0.0000 O   0  0  0  0  0  0  0  0  0  0  0  0
   17.3600  -17.7800    0.0000 C   0  0  0  0  0  0  0  0  0  0  0  0
   18.2700  -20.8600    0.0000 O   0  0  0  0  0  0  0  0  0  0  0  0
   21.7700  -20.2300    0.0000 C   0  0  0  0  0  0  0  0  0  0  0  0
   20.1600  -20.9300    0.0000 F   0  0  0  0  0  0  0  0  0  0  0  0
   21.9100  -16.1000    0.0000 C   0  0  0  0  0  0  0  0  0  0  0  0
   21.9100  -17.5000    0.0000 N   0  0  0  0  0  0  0  0  0  0  0  0
   23.2400  -17.9200    0.0000 C   0  0  0  0  0  0  0  0  0  0  0  0
   24.0800  -16.8000    0.0000 N   0  0  0  0  0  0  0  0  0  0  0  0
   23.2400  -15.6800    0.0000 C   0  0  0  0  0  0  0  0  0  0  0  0
   23.5200  -14.2800    0.0000 C   0  0  0  0  0  0  0  0  0  0  0  0
   22.4700  -13.3700    0.0000 N   0  0  0  0  0  0  0  0  0  0  0  0
   21.1400  -13.7900    0.0000 C   0  0  0  0  0  0  0  0  0  0  0  0
   20.8600  -15.1900    0.0000 N   0  0  0  0  0  0  0  0  0  0  0  0
   24.8500  -13.8600    0.0000 N   0  0  0  0  0  0  0  0  0  0  0  0
   25.9000  -14.7700    0.0000 C   0  0  0  0  0  0  0  0  0  0  0  0
   20.0900  -12.8800    0.0000 N   0  0  0  0  0  0  0  0  0  0  0  0
   31.8500  -16.8000    0.0000 S   0  0  0  0  0  0  0  0  0  0  0  0
   30.4500  -16.8000    0.0000 O   0  0  0  0  0  0  0  0  0  0  0  0
   33.2500  -16.8000    0.0000 O   0  0  0  0  0  0  0  0  0  0  0  0
   31.8500  -15.4000    0.0000 O   0  0  0  0  0  0  0  0  0  0  0  0
   31.8500  -18.2000    0.0000 O   0  0  0  0  0  0  0  0  0  0  0  0
    7.0700  -17.8500    0.0000 C   0  0  0  0  0  0  0  0  0  0  0  0
    8.2600  -18.5500    0.0000 C   0  0  0  0  0  0  0  0  0  0  0  0
    9.4500  -17.8500    0.0000 O   0  0  0  0  0  0  0  0  0  0  0  0
   10.6400  -18.5500    0.0000 C   0  0  0  0  0  0  0  0  0  0  0  0
   11.8300  -17.8500    0.0000 C   0  0  0  0  0  0  0  0  0  0  0  0
   13.0200  -18.5500    0.0000 N   0  0  0  0  0  0  0  0  0  0  0  0
   14.7700  -17.8500    0.0000 P   0  0  0  0  0  0  0  0  0  0  0  0
   13.5800  -17.1500    0.0000 O   0  0  0  0  0  0  0  0  0  0  0  0
   15.9600  -17.1500    0.0000 O   0  0  0  0  0  0  0  0  0  0  0  0
   15.9600  -15.7500    0.0000 C   0  0  0  0  0  0  0  0  0  0  0  0
   17.1500  -15.0500    0.0000 C   0  0  0  0  0  0  0  0  0  0  0  0
   17.1500  -13.7200    0.0000 C   0  0  0  0  0  0  0  0  0  0  0  0
   15.9600  -13.0200    0.0000 C   0  0  0  0  0  0  0  0  0  0  0  0
   14.7700  -13.7200    0.0000 C   0  0  0  0  0  0  0  0  0  0  0  0
   14.7700  -15.0500    0.0000 C   0  0  0  0  0  0  0  0  0  0  0  0
   16.1700  -18.5500    0.0000 O   0  0  0  0  0  0  0  0  0  0  0  0
   17.3600  -17.7800    0.0000 C   0  0  0  0  0  0  0  0  0  0  0  0
   18.5500  -18.4100    0.0000 C   0  0  0  0  0  0  0  0  0  0  0  0
   19.0400  -19.7400    0.0000 C   0  0  0  0  0  0  0  0  0  0  0  0
   20.4400  -19.7400    0.0000 C   0  0  0  0  0  0  0  0  0  0  0  0
   20.7900  -18.3400    0.0000 C   0  0  0  0  0  0  0  0  0  0  0  0
   19.6700  -17.5000    0.0000 O   0  0  0  0  0  0  0  0  0  0  0  0
   21.9100  -17.5000    0.0000 N   0  0  0  0  0  0  0  0  0  0  0  0
   21.9100  -16.1000    0.0000 C   0  0  0  0  0  0  0  0  0  0  0  0
   23.2400  -15.6800    0.0000 C   0  0  0  0  0  0  0  0  0  0  0  0
   24.0800  -16.8000    0.0000 N   0  0  0  0  0  0  0  0  0  0  0  0
   23.2400  -17.9200    0.0000 C   0  0  0  0  0  0  0  0  0  0  0  0
   23.5200  -14.2800    0.0000 C   0  0  0  0  0  0  0  0  0  0  0  0
   22.4700  -13.3700    0.0000 N   0  0  0  0  0  0  0  0  0  0  0  0
   21.1400  -13.7900    0.0000 C   0  0  0  0  0  0  0  0  0  0  0  0
   20.8600  -15.1900    0.0000 N   0  0  0  0  0  0  0  0  0  0  0  0
   20.0900  -12.8800    0.0000 N   0  0  0  0  0  0  0  0  0  0  0  0
   24.8500  -13.8600    0.0000 N   0  0  0  0  0  0  0  0  0  0  0  0
   25.9000  -14.7700    0.0000 C   0  0  0  0  0  0  0  0  0  0  0  0
   21.7700  -20.2300    0.0000 C   0  0  0  0  0  0  0  0  0  0  0  0
   20.1600  -20.9300    0.0000 F   0  0  0  0  0  0  0  0  0  0  0  0
   18.2700  -20.8600    0.0000 O   0  0  0  0  0  0  0  0  0  0  0  0
   11.8300  -16.4500    0.0000 C   0  0  0  0  0  0  0  0  0  0  0  0
   10.6400  -19.8800    0.0000 O   0  0  0  0  0  0  0  0  0  0  0  0
    8.2600  -19.8800    0.0000 C   0  0  0  0  0  0  0  0  0  0  0  0
 41 42  1  0     0  0
 41 43  1  0     0  0
 41 44  2  0     0  0
 41 45  2  0     0  0
  1  2  1  0     0  0
  2  3  1  0     0  0
  3  4  1  0     0  0
  4  5  1  0     0  0
  5  6  1  0     0  0
  2  7  1  0     0  0
  4  8  2  0     0  0
  5  9  1  6     0  0
 10 11  1  0     0  0
 11 12  1  0     0  0
 12 13  1  0     0  0
 13 14  1  0     0  0
 10 14  1  0     0  0
 15 16  2  0     0  0
 15 17  1  0     0  0
 17 18  1  0     0  0
 18 19  2  0     0  0
 19 20  1  0     0  0
 20 21  2  0     0  0
 21 22  1  0     0  0
 22 23  2  0     0  0
 18 23  1  0     0  0
 15 24  1  6     0  0
 24 25  1  0     0  0
 10 25  1  1     0  0
 11 26  1  6     0  0
 12 27  1  1     0  0
 12 28  1  6     0  0
 15  6  1  1     0  0
 29 30  1  0     0  0
 30 31  1  0     0  0
 31 32  2  0     0  0
 32 33  1  0     0  0
 29 33  1  0     0  0
 13 30  1  1     0  0
 33 34  2  0     0  0
 34 35  1  0     0  0
 35 36  2  0     0  0
 36 37  1  0     0  0
 29 37  2  0     0  0
 34 38  1  0     0  0
 38 39  1  0     0  0
 36 40  1  0     0  0
 46 47  1  0     0  0
 47 48  1  0     0  0
 48 49  1  0     0  0
 49 50  1  0     0  0
 50 51  1  0     0  0
 47 85  1  0     0  0
 49 84  2  0     0  0
 50 83  1  6     0  0
 63 64  1  0     0  0
 64 65  1  0     0  0
 65 66  1  0     0  0
 66 67  1  0     0  0
 63 67  1  0     0  0
 52 53  2  0     0  0
 52 54  1  0     0  0
 54 55  1  0     0  0
 55 56  2  0     0  0
 56 57  1  0     0  0
 57 58  2  0     0  0
 58 59  1  0     0  0
 59 60  2  0     0  0
 55 60  1  0     0  0
 52 61  1  6     0  0
 61 62  1  0     0  0
 63 62  1  1     0  0
 64 82  1  6     0  0
 65 80  1  1     0  0
 65 81  1  6     0  0
 52 51  1  1     0  0
 69 68  1  0     0  0
 68 72  1  0     0  0
 72 71  2  0     0  0
 71 70  1  0     0  0
 69 70  1  0     0  0
 66 68  1  1     0  0
 70 73  2  0     0  0
 73 74  1  0     0  0
 74 75  2  0     0  0
 75 76  1  0     0  0
 69 76  2  0     0  0
 73 78  1  0     0  0
 78 79  1  0     0  0
 75 77  1  0     0  0
M  STY  1   1 MUL
M  SLB  1   1   1
M  SCN  1   1 HT 
M  SAL   1 15   1   2   3   4   5   6   7   8   9  10  11  12  13  14  15
M  SAL   1 15  16  17  18  19  20  21  22  23  24  25  26  27  28  29  30
M  SAL   1 15  31  32  33  34  35  36  37  38  39  40  46  47  48  49  50
M  SAL   1 15  51  52  53  54  55  56  57  58  59  60  61  62  63  64  65
M  SAL   1 15  66  67  68  69  70  71  72  73  74  75  76  77  78  79  80
M  SAL   1  5  81  82  83  84  85
M  SPA   1 15   1   2   3   4   5   6  15  16  17  18  19  20  21  22  23
M  SPA   1 15  24  25  10  11  12  13  14  30  29  33  32  31  34  35  36
M  SPA   1 10  37  40  38  39  27  28  26   9   8   7
M  SDI   1  4    4.4100  -22.1900    4.4100  -10.1500
M  SDI   1  4   27.6500  -10.1500   27.6500  -22.1900
M  SMT   1 2
M  END
