 
 
 
 26 28  0  0  1  0  0  0  0  0999 V2000
    8.2600  -18.8300    0.0000 C   0  0  0  0  0  0  0  0  0  0  0  0
    8.6800  -20.1600    0.0000 C   0  0  0  0  0  0  0  0  0  0  0  0
   10.0800  -20.1600    0.0000 O   0  0  0  0  0  0  0  0  0  0  0  0
   10.5000  -18.8300    0.0000 C   0  0  0  0  0  0  0  0  0  0  0  0
    9.3800  -17.9900    0.0000 C   0  0  0  0  0  0  0  0  0  0  0  0
    7.0700  -18.1300    0.0000 N   0  0  0  0  0  0  0  0  0  0  0  0
    5.8800  -18.8300    0.0000 S   0  0  0  0  0  0  0  0  0  0  0  0
    4.6676  -19.5300    0.0000 C   0  0  0  0  0  0  0  0  0  0  0  0
    3.4721  -18.8396    0.0000 C   0  0  0  0  0  0  0  0  0  0  0  0
    4.6675  -20.9298    0.0000 C   0  0  0  0  0  0  0  0  0  0  0  0
    5.1800  -17.6176    0.0000 O   0  0  0  0  0  0  0  0  0  0  0  0
    6.5800  -20.0424    0.0000 O   0  0  0  0  0  0  0  0  0  0  0  0
    9.3800  -16.5900    0.0000 O   0  0  0  0  0  0  0  0  0  0  0  0
   10.5924  -15.8900    0.0000 C   0  0  0  0  0  0  0  0  0  0  0  0
   11.7879  -16.5804    0.0000 C   0  0  0  0  0  0  0  0  0  0  0  0
   13.0004  -15.8805    0.0000 C   0  0  0  0  0  0  0  0  0  0  0  0
   13.0006  -14.4805    0.0000 C   0  0  0  0  0  0  0  0  0  0  0  0
   11.8051  -13.7901    0.0000 C   0  0  0  0  0  0  0  0  0  0  0  0
   10.5926  -14.4900    0.0000 C   0  0  0  0  0  0  0  0  0  0  0  0
   14.2234  -13.7746    0.0000 C   0  0  0  0  0  0  0  0  0  0  0  0
   15.5474  -14.2039    0.0000 S   0  0  0  0  0  0  0  0  0  0  0  0
   16.3667  -13.0761    0.0000 C   0  0  0  0  0  0  0  0  0  0  0  0
   15.5472  -11.9484    0.0000 C   0  0  0  0  0  0  0  0  0  0  0  0
   14.2216  -12.3793    0.0000 C   0  0  0  0  0  0  0  0  0  0  0  0
   17.7799  -13.0758    0.0000 C   0  0  0  0  0  0  0  0  0  0  0  0
   19.1799  -13.0758    0.0000 N   0  0  0  0  0  0  0  0  0  0  0  0
  1  2  1  0     0  0
  2  3  1  0     0  0
  3  4  1  0     0  0
  4  5  1  0     0  0
  1  5  1  0     0  0
  1  6  1  6     0  0
  6  7  1  0     0  0
  7  8  1  0     0  0
  8  9  1  0     0  0
  8 10  1  0     0  0
  7 11  2  0     0  0
  7 12  2  0     0  0
  5 13  1  6     0  0
 13 14  1  0     0  0
 14 15  2  0     0  0
 15 16  1  0     0  0
 16 17  2  0     0  0
 17 18  1  0     0  0
 18 19  2  0     0  0
 14 19  1  0     0  0
 17 20  1  0     0  0
 20 21  1  0     0  0
 21 22  1  0     0  0
 22 23  2  0     0  0
 23 24  1  0     0  0
 20 24  2  0     0  0
 22 25  1  0     0  0
 25 26  3  0     0  0
M  END
