 
 
 
 32 36  0  0  0  0  0  0  0  0999 V2000
    9.4500  -15.8200    0.0000 C   0  0  0  0  0  0  0  0  0  0  0  0
    9.4500  -17.2200    0.0000 C   0  0  0  0  0  0  0  0  0  0  0  0
   10.6400  -17.9200    0.0000 C   0  0  0  0  0  0  0  0  0  0  0  0
   11.9000  -17.2200    0.0000 C   0  0  0  0  0  0  0  0  0  0  0  0
   11.9000  -15.8200    0.0000 C   0  0  0  0  0  0  0  0  0  0  0  0
   10.6400  -15.1200    0.0000 C   0  0  0  0  0  0  0  0  0  0  0  0
   13.2300  -17.6400    0.0000 N   0  0  0  0  0  0  0  0  0  0  0  0
   14.0000  -16.5200    0.0000 C   0  0  0  0  0  0  0  0  0  0  0  0
   13.2300  -15.4000    0.0000 N   0  0  0  0  0  0  0  0  0  0  0  0
    8.2600  -17.9200    0.0000 C   0  0  0  0  0  0  0  0  0  0  0  0
    7.0700  -17.2200    0.0000 N   0  0  0  0  0  0  0  0  0  0  0  0
   13.6500  -14.0700    0.0000 C   0  0  0  0  0  0  0  0  0  0  0  0
   15.0500  -13.7900    0.0000 C   0  0  0  0  0  0  0  0  0  0  0  0
   15.9600  -14.8400    0.0000 C   0  0  0  0  0  0  0  0  0  0  0  0
   15.4000  -16.5200    0.0000 C   0  0  0  0  0  0  0  0  0  0  0  0
   17.3600  -14.5600    0.0000 C   0  0  0  0  0  0  0  0  0  0  0  0
   16.1000  -17.7100    0.0000 N   0  0  0  0  0  0  0  0  0  0  0  0
   15.6800  -19.0400    0.0000 C   0  0  0  0  0  0  0  0  0  0  0  0
   16.8000  -19.8800    0.0000 C   0  0  0  0  0  0  0  0  0  0  0  0
   17.9200  -19.1100    0.0000 C   0  0  0  0  0  0  0  0  0  0  0  0
   17.5000  -17.7100    0.0000 C   0  0  0  0  0  0  0  0  0  0  0  0
   19.2500  -19.3900    0.0000 C   0  0  0  0  0  0  0  0  0  0  0  0
   20.2300  -18.3400    0.0000 C   0  0  0  0  0  0  0  0  0  0  0  0
   19.7400  -17.0100    0.0000 C   0  0  0  0  0  0  0  0  0  0  0  0
   18.4100  -16.7300    0.0000 C   0  0  0  0  0  0  0  0  0  0  0  0
   14.3500  -19.3900    0.0000 O   0  0  0  0  0  0  0  0  0  0  0  0
   16.1000  -21.0700    0.0000 C   0  0  0  0  0  0  0  0  0  0  0  0
   17.5000  -21.0700    0.0000 C   0  0  0  0  0  0  0  0  0  0  0  0
   20.6554  -15.9507    0.0000 F   0  0  0  0  0  0  0  0  0  0  0  0
   18.7123  -14.1977    0.0000 F   0  0  0  0  0  0  0  0  0  0  0  0
   16.9977  -13.2077    0.0000 F   0  0  0  0  0  0  0  0  0  0  0  0
   17.7223  -15.9123    0.0000 F   0  0  0  0  0  0  0  0  0  0  0  0
  1  2  2  0     0  0
  2  3  1  0     0  0
  3  4  2  0     0  0
  4  5  1  0     0  0
  5  6  2  0     0  0
  1  6  1  0     0  0
  4  7  1  0     0  0
  7  8  2  0     0  0
  8  9  1  0     0  0
  5  9  1  0     0  0
  2 10  1  0     0  0
 10 11  1  0     0  0
  9 12  1  0     0  0
 12 13  1  0     0  0
 13 14  1  0     0  0
  8 15  1  0     0  0
 14 16  1  0     0  0
 15 17  1  0     0  0
 17 18  1  0     0  0
 18 19  1  0     0  0
 19 20  1  0     0  0
 20 21  1  0     0  0
 17 21  1  0     0  0
 20 22  2  0     0  0
 22 23  1  0     0  0
 23 24  2  0     0  0
 24 25  1  0     0  0
 21 25  2  0     0  0
 18 26  2  0     0  0
 27 28  1  0     0  0
 28 19  1  0     0  0
 19 27  1  0     0  0
 24 29  1  0     0  0
 16 30  1  0     0  0
 16 31  1  0     0  0
 16 32  1  0     0  0
M  END
