 
 
 
 33 36  0  0  0  0  0  0  0  0999 V2000
   13.4400  -17.3600    0.0000 N   0  0  0  0  0  0  0  0  0  0  0  0
   13.4400  -15.9600    0.0000 C   0  0  0  0  0  0  0  0  0  0  0  0
   14.6300  -15.2600    0.0000 C   0  0  0  0  0  0  0  0  0  0  0  0
   14.6300  -13.8600    0.0000 C   0  0  0  0  0  0  0  0  0  0  0  0
   13.4400  -13.1600    0.0000 N   0  0  0  0  0  0  0  0  0  0  0  0
   12.2500  -13.8600    0.0000 C   0  0  0  0  0  0  0  0  0  0  0  0
   12.2500  -15.2600    0.0000 N   0  0  0  0  0  0  0  0  0  0  0  0
   15.8900  -15.9600    0.0000 C   0  0  0  0  0  0  0  0  0  0  0  0
   17.0800  -15.2600    0.0000 C   0  0  0  0  0  0  0  0  0  0  0  0
   17.0800  -13.8600    0.0000 C   0  0  0  0  0  0  0  0  0  0  0  0
   15.8900  -13.1600    0.0000 C   0  0  0  0  0  0  0  0  0  0  0  0
   18.2700  -15.9600    0.0000 O   0  0  0  0  0  0  0  0  0  0  0  0
   19.4600  -15.2600    0.0000 C   0  0  0  0  0  0  0  0  0  0  0  0
   20.6500  -15.9600    0.0000 C   0  0  0  0  0  0  0  0  0  0  0  0
   21.9100  -15.2600    0.0000 C   0  0  0  0  0  0  0  0  0  0  0  0
   21.9100  -13.8600    0.0000 N   0  0  0  0  0  0  0  0  0  0  0  0
   20.7200  -13.1600    0.0000 C   0  0  0  0  0  0  0  0  0  0  0  0
   19.4600  -13.8600    0.0000 C   0  0  0  0  0  0  0  0  0  0  0  0
   23.1000  -13.1600    0.0000 C   0  0  0  0  0  0  0  0  0  0  0  0
   24.2900  -13.8600    0.0000 C   0  0  0  0  0  0  0  0  0  0  0  0
   25.4800  -13.1600    0.0000 C   0  0  0  0  0  0  0  0  0  0  0  0
   23.1000  -11.7600    0.0000 O   0  0  0  0  0  0  0  0  0  0  0  0
   18.2700  -13.1600    0.0000 O   0  0  0  0  0  0  0  0  0  0  0  0
   18.2700  -11.7600    0.0000 C   0  0  0  0  0  0  0  0  0  0  0  0
   14.6553  -18.0551    0.0000 C   0  0  0  0  0  0  0  0  0  0  0  0
   14.6611  -19.4597    0.0000 C   0  0  0  0  0  0  0  0  0  0  0  0
   15.8764  -20.1547    0.0000 C   0  0  0  0  0  0  0  0  0  0  0  0
   17.0859  -19.4497    0.0000 C   0  0  0  0  0  0  0  0  0  0  0  0
   17.0801  -18.0451    0.0000 C   0  0  0  0  0  0  0  0  0  0  0  0
   15.8648  -17.3501    0.0000 C   0  0  0  0  0  0  0  0  0  0  0  0
   13.4284  -20.1785    0.0000 F   0  0  0  0  0  0  0  0  0  0  0  0
   15.8821  -21.5600    0.0000 Cl  0  0  0  0  0  0  0  0  0  0  0  0
   18.3012  -20.1446    0.0000 Cl  0  0  0  0  0  0  0  0  0  0  0  0
  1  2  1  0     0  0
  2  3  2  0     0  0
  3  4  1  0     0  0
  4  5  2  0     0  0
  5  6  1  0     0  0
  6  7  2  0     0  0
  2  7  1  0     0  0
  3  8  1  0     0  0
  8  9  2  0     0  0
  9 10  1  0     0  0
 10 11  2  0     0  0
  4 11  1  0     0  0
  9 12  1  0     0  0
 12 13  1  0     0  0
 13 14  1  0     0  0
 14 15  1  0     0  0
 15 16  1  0     0  0
 16 17  1  0     0  0
 17 18  1  0     0  0
 13 18  1  0     0  0
 16 19  1  0     0  0
 19 20  1  0     0  0
 20 21  2  0     0  0
 19 22  2  0     0  0
 10 23  1  0     0  0
 23 24  1  0     0  0
  1 25  1  0     0  0
 25 26  2  0     0  0
 26 27  1  0     0  0
 27 28  2  0     0  0
 28 29  1  0     0  0
 29 30  2  0     0  0
 25 30  1  0     0  0
 26 31  1  0     0  0
 27 32  1  0     0  0
 28 33  1  0     0  0
M  END
