 
 
 
 34 36  0  0  0  0  0  0  0  0999 V2000
   13.2363  -16.8780    0.0000 N   0  0  0  0  0  0  0  0  0  0  0  0
   13.2363  -15.4774    0.0000 C   0  0  0  0  0  0  0  0  0  0  0  0
   14.4269  -14.7770    0.0000 C   0  0  0  0  0  0  0  0  0  0  0  0
   14.4269  -13.3764    0.0000 C   0  0  0  0  0  0  0  0  0  0  0  0
   13.2363  -12.6760    0.0000 N   0  0  0  0  0  0  0  0  0  0  0  0
   12.0457  -13.3764    0.0000 C   0  0  0  0  0  0  0  0  0  0  0  0
   12.0457  -14.7770    0.0000 N   0  0  0  0  0  0  0  0  0  0  0  0
   15.6874  -15.4774    0.0000 C   0  0  0  0  0  0  0  0  0  0  0  0
   16.8780  -14.7770    0.0000 C   0  0  0  0  0  0  0  0  0  0  0  0
   16.8780  -13.3764    0.0000 C   0  0  0  0  0  0  0  0  0  0  0  0
   15.6874  -12.6760    0.0000 C   0  0  0  0  0  0  0  0  0  0  0  0
   18.0686  -15.4774    0.0000 O   0  0  0  0  0  0  0  0  0  0  0  0
   19.2591  -14.7770    0.0000 C   0  0  0  0  0  0  0  0  0  0  0  0
   20.4497  -15.4774    0.0000 C   0  0  0  0  0  0  0  0  0  0  0  0
   21.7103  -14.7770    0.0000 C   0  0  0  0  0  0  0  0  0  0  0  0
   21.7103  -13.3764    0.0000 N   0  0  0  0  0  0  0  0  0  0  0  0
   20.5197  -12.6760    0.0000 C   0  0  0  0  0  0  0  0  0  0  0  0
   19.2591  -13.3764    0.0000 C   0  0  0  0  0  0  0  0  0  0  0  0
   22.9009  -12.6760    0.0000 C   0  0  0  0  0  0  0  0  0  0  0  0
   24.0914  -13.3764    0.0000 C   0  0  0  0  0  0  0  0  0  0  0  0
   25.2820  -12.6760    0.0000 C   0  0  0  0  0  0  0  0  0  0  0  0
   22.9009  -11.2754    0.0000 O   0  0  0  0  0  0  0  0  0  0  0  0
   18.0686  -12.6760    0.0000 O   0  0  0  0  0  0  0  0  0  0  0  0
   18.0686  -11.2754    0.0000 C   0  0  0  0  0  0  0  0  0  0  0  0
   14.4969  -17.5783    0.0000 C   0  0  0  0  0  0  0  0  0  0  0  0
   14.4969  -18.9790    0.0000 C   0  0  0  0  0  0  0  0  0  0  0  0
   15.6874  -19.6793    0.0000 C   0  0  0  0  0  0  0  0  0  0  0  0
   16.8780  -18.9790    0.0000 C   0  0  0  0  0  0  0  0  0  0  0  0
   16.8780  -17.5783    0.0000 C   0  0  0  0  0  0  0  0  0  0  0  0
   15.6874  -16.8780    0.0000 C   0  0  0  0  0  0  0  0  0  0  0  0
   13.2363  -19.7494    0.0000 F   0  0  0  0  0  0  0  0  0  0  0  0
   15.6874  -21.0800    0.0000 Cl  0  0  0  0  0  0  0  0  0  0  0  0
   18.1386  -19.6793    0.0000 Cl  0  0  0  0  0  0  0  0  0  0  0  0
   25.1300  -19.5300    0.0000 Cl  0  0  0  0  0  0  0  0  0  0  0  0
  1  2  1  0     0  0
  2  3  2  0     0  0
  3  4  1  0     0  0
  4  5  2  0     0  0
  5  6  1  0     0  0
  6  7  2  0     0  0
  2  7  1  0     0  0
  3  8  1  0     0  0
  8  9  2  0     0  0
  9 10  1  0     0  0
 10 11  2  0     0  0
  4 11  1  0     0  0
  9 12  1  0     0  0
 12 13  1  0     0  0
 13 14  1  0     0  0
 14 15  1  0     0  0
 15 16  1  0     0  0
 16 17  1  0     0  0
 17 18  1  0     0  0
 13 18  1  0     0  0
 16 19  1  0     0  0
 19 20  1  0     0  0
 20 21  2  0     0  0
 19 22  2  0     0  0
 10 23  1  0     0  0
 23 24  1  0     0  0
  1 25  1  0     0  0
 25 26  2  0     0  0
 26 27  1  0     0  0
 27 28  2  0     0  0
 28 29  1  0     0  0
 29 30  2  0     0  0
 25 30  1  0     0  0
 26 31  1  0     0  0
 27 32  1  0     0  0
 28 33  1  0     0  0
M  END
