 
 
 
 35 38  0  0  0  0  0  0  0  0999 V2000
   22.6800  -12.6700    0.0000 C   0  0  0  0  0  0  0  0  0  0  0  0
   22.6800  -14.0700    0.0000 N   0  0  0  0  0  0  0  0  0  0  0  0
   23.8924  -14.7700    0.0000 C   0  0  0  0  0  0  0  0  0  0  0  0
   25.1049  -14.0700    0.0000 C   0  0  0  0  0  0  0  0  0  0  0  0
   25.1049  -12.6700    0.0000 C   0  0  0  0  0  0  0  0  0  0  0  0
   23.8924  -11.9700    0.0000 C   0  0  0  0  0  0  0  0  0  0  0  0
   26.3360  -11.9590    0.0000 C   0  0  0  0  0  0  0  0  0  0  0  0
   27.5412  -12.6547    0.0000 C   0  0  0  0  0  0  0  0  0  0  0  0
   28.7235  -11.9719    0.0000 O   0  0  0  0  0  0  0  0  0  0  0  0
   27.5416  -14.0696    0.0000 O   0  0  0  0  0  0  0  0  0  0  0  0
   21.4676  -14.7700    0.0000 C   0  0  0  0  0  0  0  0  0  0  0  0
   20.2721  -14.0796    0.0000 C   0  0  0  0  0  0  0  0  0  0  0  0
   21.4675  -16.1698    0.0000 O   0  0  0  0  0  0  0  0  0  0  0  0
   20.2720  -12.6703    0.0000 C   0  0  0  0  0  0  0  0  0  0  0  0
   19.0596  -11.9703    0.0000 C   0  0  0  0  0  0  0  0  0  0  0  0
   17.8472  -12.6703    0.0000 C   0  0  0  0  0  0  0  0  0  0  0  0
   17.8472  -14.0797    0.0000 C   0  0  0  0  0  0  0  0  0  0  0  0
   19.0596  -14.7796    0.0000 C   0  0  0  0  0  0  0  0  0  0  0  0
   16.6367  -11.9715    0.0000 Cl  0  0  0  0  0  0  0  0  0  0  0  0
   19.0595  -16.1699    0.0000 Cl  0  0  0  0  0  0  0  0  0  0  0  0
   16.6411  -14.7760    0.0000 C   0  0  0  0  0  0  0  0  0  0  0  0
   16.6411  -16.1760    0.0000 N   0  0  0  0  0  0  0  0  0  0  0  0
   15.5238  -16.9879    0.0000 C   0  0  0  0  0  0  0  0  0  0  0  0
   15.9506  -18.3014    0.0000 C   0  0  0  0  0  0  0  0  0  0  0  0
   17.3318  -18.3013    0.0000 C   0  0  0  0  0  0  0  0  0  0  0  0
   17.7585  -16.9878    0.0000 C   0  0  0  0  0  0  0  0  0  0  0  0
   14.1543  -16.6969    0.0000 C   0  0  0  0  0  0  0  0  0  0  0  0
   13.2176  -17.7374    0.0000 C   0  0  0  0  0  0  0  0  0  0  0  0
   13.6445  -19.0509    0.0000 C   0  0  0  0  0  0  0  0  0  0  0  0
   15.0139  -19.3419    0.0000 C   0  0  0  0  0  0  0  0  0  0  0  0
   13.7296  -15.3915    0.0000 Cl  0  0  0  0  0  0  0  0  0  0  0  0
   12.7156  -20.0826    0.0000 C   0  0  0  0  0  0  0  0  0  0  0  0
   13.7056  -21.0725    0.0000 F   0  0  0  0  0  0  0  0  0  0  0  0
   11.7257  -19.0926    0.0000 F   0  0  0  0  0  0  0  0  0  0  0  0
   11.7257  -21.0725    0.0000 F   0  0  0  0  0  0  0  0  0  0  0  0
  1  2  1  0     0  0
  2  3  1  0     0  0
  3  4  1  0     0  0
  4  5  1  0     0  0
  5  6  1  0     0  0
  1  6  1  0     0  0
  5  7  1  0     0  0
  7  8  1  0     0  0
  8  9  1  0     0  0
  8 10  2  0     0  0
  2 11  1  0     0  0
 11 12  1  0     0  0
 11 13  2  0     0  0
 12 14  2  0     0  0
 14 15  1  0     0  0
 15 16  2  0     0  0
 16 17  1  0     0  0
 17 18  2  0     0  0
 12 18  1  0     0  0
 16 19  1  0     0  0
 18 20  1  0     0  0
 17 21  1  0     0  0
 21 22  1  0     0  0
 22 23  1  0     0  0
 23 24  1  0     0  0
 24 25  1  0     0  0
 25 26  2  0     0  0
 22 26  1  0     0  0
 23 27  2  0     0  0
 27 28  1  0     0  0
 28 29  2  0     0  0
 29 30  1  0     0  0
 24 30  2  0     0  0
 27 31  1  0     0  0
 29 32  1  0     0  0
 32 33  1  0     0  0
 32 34  1  0     0  0
 32 35  1  0     0  0
M  END
