 
 
 
 85 90  0  0  1  0  0  0  0  0999 V2000
   11.9613  -18.9563    0.0000 C   0  0  0  0  0  0  0  0  0  0  0  0
   13.1505  -18.2568    0.0000 C   0  0  0  0  0  0  0  0  0  0  0  0
   14.4096  -18.9563    0.0000 C   0  0  0  0  0  0  0  0  0  0  0  0
   15.5987  -18.2568    0.0000 N   0  0  0  0  0  0  0  0  0  0  0  0
   16.7879  -18.9563    0.0000 C   0  0  0  0  0  0  0  0  0  0  0  0
   18.0469  -18.2568    0.0000 C   0  0  0  0  0  0  0  0  0  0  0  0
   19.2361  -18.9563    0.0000 C   0  0  0  0  0  0  0  0  0  0  0  0
   20.4952  -18.2568    0.0000 O   0  0  0  0  0  0  0  0  0  0  0  0
   21.6843  -18.9563    0.0000 C   0  0  0  0  0  0  0  0  0  0  0  0
   10.7722  -18.2568    0.0000 C   0  0  0  0  0  0  0  0  0  0  0  0
    9.5131  -18.9563    0.0000 C   0  0  0  0  0  0  0  0  0  0  0  0
    9.5131  -20.3553    0.0000 C   0  0  0  0  0  0  0  0  0  0  0  0
   10.7722  -21.0548    0.0000 C   0  0  0  0  0  0  0  0  0  0  0  0
   11.9613  -20.3553    0.0000 C   0  0  0  0  0  0  0  0  0  0  0  0
   13.1505  -16.8578    0.0000 C   0  0  0  0  0  0  0  0  0  0  0  0
   14.4096  -16.1583    0.0000 C   0  0  0  0  0  0  0  0  0  0  0  0
   14.4096  -14.7593    0.0000 C   0  0  0  0  0  0  0  0  0  0  0  0
   13.1505  -14.0598    0.0000 C   0  0  0  0  0  0  0  0  0  0  0  0
   11.9613  -14.7593    0.0000 C   0  0  0  0  0  0  0  0  0  0  0  0
   11.9613  -16.1583    0.0000 C   0  0  0  0  0  0  0  0  0  0  0  0
   15.5987  -16.8578    0.0000 C   0  0  0  0  0  0  0  0  0  0  0  0
   16.8578  -16.1583    0.0000 C   0  0  0  0  0  0  0  0  0  0  0  0
   18.0469  -16.8578    0.0000 C   0  0  0  0  0  0  0  0  0  0  0  0
   19.2361  -16.1583    0.0000 C   0  0  0  0  0  0  0  0  0  0  0  0
   19.2361  -14.7593    0.0000 C   0  0  0  0  0  0  0  0  0  0  0  0
   18.0469  -14.0598    0.0000 C   0  0  0  0  0  0  0  0  0  0  0  0
   16.8578  -14.7593    0.0000 C   0  0  0  0  0  0  0  0  0  0  0  0
   15.5987  -14.0598    0.0000 Cl  0  0  0  0  0  0  0  0  0  0  0  0
   18.0469  -12.6608    0.0000 C   0  0  0  0  0  0  0  0  0  0  0  0
   18.0469  -11.2619    0.0000 F   0  0  0  0  0  0  0  0  0  0  0  0
   16.6480  -12.6608    0.0000 F   0  0  0  0  0  0  0  0  0  0  0  0
   19.4459  -12.6608    0.0000 F   0  0  0  0  0  0  0  0  0  0  0  0
   21.6843  -20.3553    0.0000 C   0  0  0  0  0  0  0  0  0  0  0  0
   22.8735  -21.0548    0.0000 C   0  0  0  0  0  0  0  0  0  0  0  0
   24.0626  -20.3553    0.0000 C   0  0  0  0  0  0  0  0  0  0  0  0
   24.0626  -18.9563    0.0000 C   0  0  0  0  0  0  0  0  0  0  0  0
   22.8735  -18.2568    0.0000 C   0  0  0  0  0  0  0  0  0  0  0  0
   16.7879  -20.3553    0.0000 C   0  0  0  0  0  0  0  0  0  0  0  0
   25.3217  -18.2568    0.0000 C   0  0  0  0  0  0  0  0  0  0  0  0
   26.5108  -18.9563    0.0000 C   0  0  0  0  0  0  0  0  0  0  0  0
   27.7000  -18.2568    0.0000 O   0  5  0  0  0  0  0  0  0  0  0  0
   26.5108  -20.3553    0.0000 O   0  0  0  0  0  0  0  0  0  0  0  0
   30.7300  -18.5500    0.0000 Zn  0  2  0  0  0  0  0  0  0  0  0  0
   11.9613  -18.9563    0.0000 C   0  0  0  0  0  0  0  0  0  0  0  0
   13.1505  -18.2568    0.0000 C   0  0  0  0  0  0  0  0  0  0  0  0
   14.4096  -18.9563    0.0000 C   0  0  0  0  0  0  0  0  0  0  0  0
   15.5987  -18.2568    0.0000 N   0  0  0  0  0  0  0  0  0  0  0  0
   16.7879  -18.9563    0.0000 C   0  0  0  0  0  0  0  0  0  0  0  0
   18.0469  -18.2568    0.0000 C   0  0  0  0  0  0  0  0  0  0  0  0
   19.2361  -18.9563    0.0000 C   0  0  0  0  0  0  0  0  0  0  0  0
   20.4952  -18.2568    0.0000 O   0  0  0  0  0  0  0  0  0  0  0  0
   21.6843  -18.9563    0.0000 C   0  0  0  0  0  0  0  0  0  0  0  0
   21.6843  -20.3553    0.0000 C   0  0  0  0  0  0  0  0  0  0  0  0
   22.8735  -21.0548    0.0000 C   0  0  0  0  0  0  0  0  0  0  0  0
   24.0626  -20.3553    0.0000 C   0  0  0  0  0  0  0  0  0  0  0  0
   24.0626  -18.9563    0.0000 C   0  0  0  0  0  0  0  0  0  0  0  0
   22.8735  -18.2568    0.0000 C   0  0  0  0  0  0  0  0  0  0  0  0
   25.3217  -18.2568    0.0000 C   0  0  0  0  0  0  0  0  0  0  0  0
   26.5108  -18.9563    0.0000 C   0  0  0  0  0  0  0  0  0  0  0  0
   27.7000  -18.2568    0.0000 O   0  5  0  0  0  0  0  0  0  0  0  0
   26.5108  -20.3553    0.0000 O   0  0  0  0  0  0  0  0  0  0  0  0
   16.7879  -20.3553    0.0000 C   0  0  0  0  0  0  0  0  0  0  0  0
   15.5987  -16.8578    0.0000 C   0  0  0  0  0  0  0  0  0  0  0  0
   16.8578  -16.1583    0.0000 C   0  0  0  0  0  0  0  0  0  0  0  0
   18.0469  -16.8578    0.0000 C   0  0  0  0  0  0  0  0  0  0  0  0
   19.2361  -16.1583    0.0000 C   0  0  0  0  0  0  0  0  0  0  0  0
   19.2361  -14.7593    0.0000 C   0  0  0  0  0  0  0  0  0  0  0  0
   18.0469  -14.0598    0.0000 C   0  0  0  0  0  0  0  0  0  0  0  0
   16.8578  -14.7593    0.0000 C   0  0  0  0  0  0  0  0  0  0  0  0
   15.5987  -14.0598    0.0000 Cl  0  0  0  0  0  0  0  0  0  0  0  0
   18.0469  -12.6608    0.0000 C   0  0  0  0  0  0  0  0  0  0  0  0
   18.0469  -11.2619    0.0000 F   0  0  0  0  0  0  0  0  0  0  0  0
   16.6480  -12.6608    0.0000 F   0  0  0  0  0  0  0  0  0  0  0  0
   19.4459  -12.6608    0.0000 F   0  0  0  0  0  0  0  0  0  0  0  0
   13.1505  -16.8578    0.0000 C   0  0  0  0  0  0  0  0  0  0  0  0
   14.4096  -16.1583    0.0000 C   0  0  0  0  0  0  0  0  0  0  0  0
   14.4096  -14.7593    0.0000 C   0  0  0  0  0  0  0  0  0  0  0  0
   13.1505  -14.0598    0.0000 C   0  0  0  0  0  0  0  0  0  0  0  0
   11.9613  -14.7593    0.0000 C   0  0  0  0  0  0  0  0  0  0  0  0
   11.9613  -16.1583    0.0000 C   0  0  0  0  0  0  0  0  0  0  0  0
   10.7722  -18.2568    0.0000 C   0  0  0  0  0  0  0  0  0  0  0  0
    9.5131  -18.9563    0.0000 C   0  0  0  0  0  0  0  0  0  0  0  0
    9.5131  -20.3553    0.0000 C   0  0  0  0  0  0  0  0  0  0  0  0
   10.7722  -21.0548    0.0000 C   0  0  0  0  0  0  0  0  0  0  0  0
   11.9613  -20.3553    0.0000 C   0  0  0  0  0  0  0  0  0  0  0  0
  1  2  1  0     0  0
  2  3  1  0     0  0
  3  4  1  0     0  0
  4  5  1  0     0  0
  5  6  1  0     0  0
  6  7  1  0     0  0
  7  8  1  0     0  0
  8  9  1  0     0  0
  1 10  2  0     0  0
 10 11  1  0     0  0
 11 12  2  0     0  0
 12 13  1  0     0  0
 13 14  2  0     0  0
  1 14  1  0     0  0
  2 15  1  0     0  0
 15 16  2  0     0  0
 16 17  1  0     0  0
 17 18  2  0     0  0
 18 19  1  0     0  0
 19 20  2  0     0  0
 15 20  1  0     0  0
  4 21  1  0     0  0
 21 22  1  0     0  0
 22 23  2  0     0  0
 23 24  1  0     0  0
 24 25  2  0     0  0
 25 26  1  0     0  0
 26 27  2  0     0  0
 22 27  1  0     0  0
 27 28  1  0     0  0
 26 29  1  0     0  0
 29 30  1  0     0  0
 29 31  1  0     0  0
 29 32  1  0     0  0
  9 33  2  0     0  0
 33 34  1  0     0  0
 34 35  2  0     0  0
 35 36  1  0     0  0
 36 37  2  0     0  0
  9 37  1  0     0  0
  5 38  1  1     0  0
 36 39  1  0     0  0
 39 40  1  0     0  0
 40 41  1  0     0  0
 40 42  2  0     0  0
 44 45  1  0     0  0
 45 46  1  0     0  0
 46 47  1  0     0  0
 47 48  1  0     0  0
 48 49  1  0     0  0
 49 50  1  0     0  0
 50 51  1  0     0  0
 51 52  1  0     0  0
 44 81  2  0     0  0
 81 82  1  0     0  0
 82 83  2  0     0  0
 83 84  1  0     0  0
 84 85  2  0     0  0
 44 85  1  0     0  0
 45 75  1  0     0  0
 75 76  2  0     0  0
 76 77  1  0     0  0
 77 78  2  0     0  0
 78 79  1  0     0  0
 79 80  2  0     0  0
 75 80  1  0     0  0
 47 63  1  0     0  0
 63 64  1  0     0  0
 64 65  2  0     0  0
 65 66  1  0     0  0
 66 67  2  0     0  0
 67 68  1  0     0  0
 68 69  2  0     0  0
 64 69  1  0     0  0
 69 70  1  0     0  0
 68 71  1  0     0  0
 71 72  1  0     0  0
 71 73  1  0     0  0
 71 74  1  0     0  0
 52 53  2  0     0  0
 53 54  1  0     0  0
 54 55  2  0     0  0
 55 56  1  0     0  0
 56 57  2  0     0  0
 52 57  1  0     0  0
 48 62  1  1     0  0
 56 58  1  0     0  0
 58 59  1  0     0  0
 59 60  1  0     0  0
 59 61  2  0     0  0
M  CHG  3  41  -1  43   2  60  -1
M  STY  1   1 MUL
M  SLB  1   1   1
M  SCN  1   1 HT 
M  SAL   1 15   1   2   3   4   5   6   7   8   9  10  11  12  13  14  15
M  SAL   1 15  16  17  18  19  20  21  22  23  24  25  26  27  28  29  30
M  SAL   1 15  31  32  33  34  35  36  37  38  39  40  41  42  44  45  46
M  SAL   1 15  47  48  49  50  51  52  53  54  55  56  57  58  59  60  61
M  SAL   1 15  62  63  64  65  66  67  68  69  70  71  72  73  74  75  76
M  SAL   1  9  77  78  79  80  81  82  83  84  85
M  SPA   1 15   1   2   3   4   5   6   7   8   9  33  34  35  36  37  39
M  SPA   1 15  40  41  42  38  21  22  23  24  25  26  27  28  29  30  31
M  SPA   1 12  32  15  16  17  18  19  20  10  11  12  13  14
M  SDI   1  4    7.9800  -22.1200    7.9800  -10.0800
M  SDI   1  4   28.9100  -10.0800   28.9100  -22.1200
M  SMT   1 2
M  END
