 
 
 
 31 34  0  0  1  0  0  0  0  0999 V2000
   18.5164  -17.9525    0.0000 N   0  0  0  0  0  0  0  0  0  0  0  0
   18.5164  -19.3555    0.0000 C   0  0  0  0  0  0  0  0  0  0  0  0
   19.7314  -20.0570    0.0000 C   0  0  0  0  0  0  0  0  0  0  0  0
   20.9465  -19.3555    0.0000 C   0  0  0  0  0  0  0  0  0  0  0  0
   20.9465  -17.9525    0.0000 C   0  0  0  0  0  0  0  0  0  0  0  0
   19.7314  -17.2510    0.0000 C   0  0  0  0  0  0  0  0  0  0  0  0
   17.3014  -17.2510    0.0000 C   0  0  0  0  0  0  0  0  0  0  0  0
   16.1033  -17.9429    0.0000 C   0  0  0  0  0  0  0  0  0  0  0  0
   14.9134  -17.2559    0.0000 C   0  0  0  0  0  0  0  0  0  0  0  0
   13.6984  -17.9575    0.0000 C   0  0  0  0  0  0  0  0  0  0  0  0
   13.6985  -19.3605    0.0000 C   0  0  0  0  0  0  0  0  0  0  0  0
   14.8883  -20.0474    0.0000 C   0  0  0  0  0  0  0  0  0  0  0  0
   16.1033  -19.3459    0.0000 C   0  0  0  0  0  0  0  0  0  0  0  0
   14.6217  -15.8836    0.0000 C   0  0  0  0  0  0  0  0  0  0  0  0
   13.2264  -15.7370    0.0000 C   0  0  0  0  0  0  0  0  0  0  0  0
   12.6557  -17.0187    0.0000 N   0  0  0  0  0  0  0  0  0  0  0  0
   22.1803  -20.0680    0.0000 O   0  0  0  0  0  0  0  0  0  0  0  0
   23.3881  -19.3709    0.0000 C   0  0  0  0  0  0  0  0  0  0  0  0
   24.5729  -20.0551    0.0000 C   0  0  0  0  0  0  0  0  0  0  0  0
   19.7314  -15.8482    0.0000 C   0  0  0  0  0  0  0  0  0  0  0  0
   20.9296  -15.1562    0.0000 C   0  0  0  0  0  0  0  0  0  0  0  0
   20.9294  -13.7532    0.0000 C   0  0  0  0  0  0  0  0  0  0  0  0
   19.7143  -13.0519    0.0000 C   0  0  0  0  0  0  0  0  0  0  0  0
   18.5162  -13.7438    0.0000 C   0  0  0  0  0  0  0  0  0  0  0  0
   18.5163  -15.1468    0.0000 C   0  0  0  0  0  0  0  0  0  0  0  0
   19.7142  -11.6390    0.0000 C   0  0  0  0  0  0  0  0  0  0  0  0
   18.4952  -10.9354    0.0000 O   0  0  0  0  0  0  0  0  0  0  0  0
   20.9253  -10.9397    0.0000 O   0  0  0  0  0  0  0  0  0  0  0  0
   17.3435  -20.0619    0.0000 O   0  0  0  0  0  0  0  0  0  0  0  0
   17.3435  -21.4649    0.0000 C   0  0  0  0  0  0  0  0  0  0  0  0
   16.1329  -22.1639    0.0000 C   0  0  0  0  0  0  0  0  0  0  0  0
  1  2  1  0     0  0
  2  3  1  0     0  0
  3  4  1  0     0  0
  4  5  1  0     0  0
  5  6  1  0     0  0
  1  6  1  0     0  0
  1  7  1  0     0  0
  7  8  1  0     0  0
  8  9  2  0     0  0
  9 10  1  0     0  0
 10 11  2  0     0  0
 11 12  1  0     0  0
 12 13  2  0     0  0
  8 13  1  0     0  0
  9 14  1  0     0  0
 14 15  2  0     0  0
 15 16  1  0     0  0
 10 16  1  0     0  0
  4 17  1  1     0  0
 17 18  1  0     0  0
 18 19  1  0     0  0
  6 20  1  6     0  0
 20 21  2  0     0  0
 21 22  1  0     0  0
 22 23  2  0     0  0
 23 24  1  0     0  0
 24 25  2  0     0  0
 20 25  1  0     0  0
 23 26  1  0     0  0
 26 27  1  0     0  0
 26 28  2  0     0  0
 13 29  1  0     0  0
 29 30  1  0     0  0
 30 31  1  0     0  0
M  END
