 
 
 
 30 32  0  0  0  0  0  0  0  0999 V2000
   14.1825  -15.9380    0.0000 C   0  0  0  0  0  0  0  0  0  0  0  0
   14.1825  -17.3422    0.0000 C   0  0  0  0  0  0  0  0  0  0  0  0
   15.3761  -18.0443    0.0000 C   0  0  0  0  0  0  0  0  0  0  0  0
   16.6399  -17.3422    0.0000 C   0  0  0  0  0  0  0  0  0  0  0  0
   16.6399  -15.9380    0.0000 C   0  0  0  0  0  0  0  0  0  0  0  0
   15.3761  -15.2359    0.0000 C   0  0  0  0  0  0  0  0  0  0  0  0
   17.8335  -15.2359    0.0000 C   0  0  0  0  0  0  0  0  0  0  0  0
   19.0973  -15.9380    0.0000 N   0  0  0  0  0  0  0  0  0  0  0  0
   20.2908  -15.2359    0.0000 N   0  0  0  0  0  0  0  0  0  0  0  0
   20.2908  -13.8317    0.0000 C   0  0  0  0  0  0  0  0  0  0  0  0
   19.0973  -13.1296    0.0000 C   0  0  0  0  0  0  0  0  0  0  0  0
   17.8335  -13.8317    0.0000 C   0  0  0  0  0  0  0  0  0  0  0  0
   21.4844  -13.1296    0.0000 O   0  0  0  0  0  0  0  0  0  0  0  0
   22.7482  -13.8317    0.0000 C   0  0  0  0  0  0  0  0  0  0  0  0
   22.7482  -15.2359    0.0000 C   0  0  0  0  0  0  0  0  0  0  0  0
   23.9418  -15.9380    0.0000 C   0  0  0  0  0  0  0  0  0  0  0  0
   25.1354  -15.2359    0.0000 N   0  0  0  0  0  0  0  0  0  0  0  0
   25.1354  -13.8317    0.0000 C   0  0  0  0  0  0  0  0  0  0  0  0
   23.9418  -13.1296    0.0000 C   0  0  0  0  0  0  0  0  0  0  0  0
   23.2397  -17.1316    0.0000 C   0  0  0  0  0  0  0  0  0  0  0  0
   24.6439  -17.1316    0.0000 C   0  0  0  0  0  0  0  0  0  0  0  0
   25.8375  -12.6381    0.0000 C   0  0  0  0  0  0  0  0  0  0  0  0
   26.5396  -13.8317    0.0000 C   0  0  0  0  0  0  0  0  0  0  0  0
   12.9889  -18.0443    0.0000 C   0  0  0  0  0  0  0  0  0  0  0  0
   11.7252  -17.4826    0.0000 C   0  0  0  0  0  0  0  0  0  0  0  0
   10.8124  -18.5358    0.0000 N   0  0  0  0  0  0  0  0  0  0  0  0
   11.4443  -19.7294    0.0000 N   0  0  0  0  0  0  0  0  0  0  0  0
   12.8485  -19.4485    0.0000 C   0  0  0  0  0  0  0  0  0  0  0  0
   17.8335  -18.0443    0.0000 O   0  0  0  0  0  0  0  0  0  0  0  0
   27.7200  -19.7400    0.0000 Cl  0  0  0  0  0  0  0  0  0  0  0  0
  1  2  2  0     0  0
  2  3  1  0     0  0
  3  4  2  0     0  0
  4  5  1  0     0  0
  5  6  2  0     0  0
  1  6  1  0     0  0
  5  7  1  0     0  0
  7  8  2  0     0  0
  8  9  1  0     0  0
  9 10  2  0     0  0
 10 11  1  0     0  0
 11 12  2  0     0  0
  7 12  1  0     0  0
 10 13  1  0     0  0
 13 14  1  0     0  0
 14 15  1  0     0  0
 15 16  1  0     0  0
 16 17  1  0     0  0
 17 18  1  0     0  0
 18 19  1  0     0  0
 14 19  1  0     0  0
 16 20  1  0     0  0
 16 21  1  0     0  0
 18 22  1  0     0  0
 18 23  1  0     0  0
  2 24  1  0     0  0
 24 25  2  0     0  0
 25 26  1  0     0  0
 26 27  1  0     0  0
 27 28  2  0     0  0
 24 28  1  0     0  0
  4 29  1  0     0  0
M  END
