 
 
 
 37 39  0  0  1  0  0  0  0  0999 V2000
   16.9289  -16.0195    0.0000 N   0  0  0  0  0  0  0  0  0  0  0  0
   15.8096  -15.1800    0.0000 C   0  0  0  0  0  0  0  0  0  0  0  0
   16.2293  -13.8509    0.0000 C   0  0  0  0  0  0  0  0  0  0  0  0
   17.6284  -13.8509    0.0000 C   0  0  0  0  0  0  0  0  0  0  0  0
   18.0481  -15.1800    0.0000 C   0  0  0  0  0  0  0  0  0  0  0  0
   18.6777  -12.9415    0.0000 H   0  0  0  0  0  0  0  0  0  0  0  0
   15.0401  -13.1513    0.0000 H   0  0  0  0  0  0  0  0  0  0  0  0
   16.9289  -12.6617    0.0000 C   0  0  0  0  0  0  0  0  0  0  0  0
   17.6284  -11.4725    0.0000 C   0  0  0  0  0  0  0  0  0  0  0  0
   16.2293  -11.4725    0.0000 C   0  0  0  0  0  0  0  0  0  0  0  0
   19.2373  -15.8796    0.0000 C   0  0  0  0  0  0  0  0  0  0  0  0
   20.4266  -15.1800    0.0000 N   0  0  0  0  0  0  0  0  0  0  0  0
   19.2373  -17.2786    0.0000 O   0  0  0  0  0  0  0  0  0  0  0  0
   21.6158  -15.8796    0.0000 C   0  0  0  0  0  0  0  0  0  0  0  0
   22.8750  -15.1800    0.0000 C   0  0  0  0  0  0  0  0  0  0  0  0
   21.6158  -17.2786    0.0000 C   0  0  0  0  0  0  0  0  0  0  0  0
   21.6158  -18.6777    0.0000 N   0  0  0  0  0  0  0  0  0  0  0  0
   24.0642  -15.8796    0.0000 C   0  0  0  0  0  0  0  0  0  0  0  0
   24.2740  -17.2786    0.0000 C   0  0  0  0  0  0  0  0  0  0  0  0
   25.6731  -17.5585    0.0000 N   0  0  0  0  0  0  0  0  0  0  0  0
   26.3727  -16.2993    0.0000 C   0  0  0  0  0  0  0  0  0  0  0  0
   25.3933  -15.2500    0.0000 C   0  0  0  0  0  0  0  0  0  0  0  0
   23.2247  -18.1880    0.0000 O   0  0  0  0  0  0  0  0  0  0  0  0
   16.9289  -17.4185    0.0000 C   0  0  0  0  0  0  0  0  0  0  0  0
   15.7396  -18.1181    0.0000 C   0  0  0  0  0  0  0  0  0  0  0  0
   18.1880  -18.1181    0.0000 O   0  0  0  0  0  0  0  0  0  0  0  0
   14.5504  -17.4185    0.0000 N   0  0  0  0  0  0  0  0  0  0  0  0
   15.7396  -19.5172    0.0000 C   0  0  0  0  0  0  0  0  0  0  0  0
   14.5504  -20.2167    0.0000 C   0  0  0  0  0  0  0  0  0  0  0  0
   16.9988  -20.2167    0.0000 C   0  0  0  0  0  0  0  0  0  0  0  0
   15.7396  -20.9162    0.0000 C   0  0  0  0  0  0  0  0  0  0  0  0
   13.3612  -18.1181    0.0000 C   0  0  0  0  0  0  0  0  0  0  0  0
   12.1720  -17.4185    0.0000 C   0  0  0  0  0  0  0  0  0  0  0  0
   13.3612  -19.5172    0.0000 O   0  0  0  0  0  0  0  0  0  0  0  0
   10.9828  -18.1181    0.0000 F   0  0  0  0  0  0  0  0  0  0  0  0
   12.1720  -16.0195    0.0000 F   0  0  0  0  0  0  0  0  0  0  0  0
   10.9128  -16.7190    0.0000 F   0  0  0  0  0  0  0  0  0  0  0  0
  1  2  1  0     0  0
  2  3  1  0     0  0
  3  4  1  0     0  0
  4  5  1  0     0  0
  1  5  1  0     0  0
  4  6  1  1     0  0
  3  7  1  1     0  0
  4  8  1  0     0  0
  8  3  1  0     0  0
  8  9  1  0     0  0
  8 10  1  0     0  0
  5 11  1  1     0  0
 11 12  1  0     0  0
 11 13  2  0     0  0
 14 12  1  1     0  0
 14 15  1  0     0  0
 14 16  1  0     0  0
 16 17  3  0     0  0
 18 15  1  6     0  0
 18 19  1  0     0  0
 19 20  1  0     0  0
 20 21  1  0     0  0
 21 22  1  0     0  0
 18 22  1  0     0  0
 19 23  2  0     0  0
  1 24  1  0     0  0
 24 25  1  0     0  0
 24 26  2  0     0  0
 25 27  1  0     0  0
 25 28  1  6     0  0
 28 29  1  0     0  0
 28 30  1  0     0  0
 28 31  1  0     0  0
 27 32  1  0     0  0
 32 33  1  0     0  0
 32 34  2  0     0  0
 33 35  1  0     0  0
 33 36  1  0     0  0
 33 37  1  0     0  0
M  END
