 
 
 
 33 36  0  0  0  0  0  0  0  0999 V2000
   14.2559  -14.8879    0.0000 C   0  0  0  0  0  0  0  0  0  0  0  0
   14.2559  -16.2924    0.0000 C   0  0  0  0  0  0  0  0  0  0  0  0
   15.4497  -16.9947    0.0000 C   0  0  0  0  0  0  0  0  0  0  0  0
   16.7138  -16.2924    0.0000 C   0  0  0  0  0  0  0  0  0  0  0  0
   16.7138  -14.8879    0.0000 C   0  0  0  0  0  0  0  0  0  0  0  0
   15.4497  -14.1857    0.0000 C   0  0  0  0  0  0  0  0  0  0  0  0
   18.0480  -16.7138    0.0000 N   0  0  0  0  0  0  0  0  0  0  0  0
   18.8205  -15.5902    0.0000 C   0  0  0  0  0  0  0  0  0  0  0  0
   18.0480  -14.4666    0.0000 N   0  0  0  0  0  0  0  0  0  0  0  0
   12.9918  -16.9947    0.0000 C   0  0  0  0  0  0  0  0  0  0  0  0
   11.7980  -16.2924    0.0000 N   0  0  0  0  0  0  0  0  0  0  0  0
   18.4694  -13.1323    0.0000 C   0  0  0  0  0  0  0  0  0  0  0  0
   19.8739  -12.8514    0.0000 C   0  0  0  0  0  0  0  0  0  0  0  0
   20.7868  -13.9048    0.0000 C   0  0  0  0  0  0  0  0  0  0  0  0
   20.2250  -15.5902    0.0000 C   0  0  0  0  0  0  0  0  0  0  0  0
   22.1913  -13.6239    0.0000 C   0  0  0  0  0  0  0  0  0  0  0  0
   20.9273  -16.7840    0.0000 N   0  0  0  0  0  0  0  0  0  0  0  0
   20.5059  -18.1183    0.0000 C   0  0  0  0  0  0  0  0  0  0  0  0
   21.6295  -18.9610    0.0000 C   0  0  0  0  0  0  0  0  0  0  0  0
   22.7531  -18.1885    0.0000 C   0  0  0  0  0  0  0  0  0  0  0  0
   22.3318  -16.7840    0.0000 C   0  0  0  0  0  0  0  0  0  0  0  0
   24.0874  -18.4694    0.0000 C   0  0  0  0  0  0  0  0  0  0  0  0
   25.0705  -17.4160    0.0000 C   0  0  0  0  0  0  0  0  0  0  0  0
   24.5790  -16.0817    0.0000 C   0  0  0  0  0  0  0  0  0  0  0  0
   23.2447  -15.8008    0.0000 C   0  0  0  0  0  0  0  0  0  0  0  0
   19.1716  -18.4694    0.0000 O   0  0  0  0  0  0  0  0  0  0  0  0
   20.9273  -20.1548    0.0000 C   0  0  0  0  0  0  0  0  0  0  0  0
   22.3318  -20.1548    0.0000 C   0  0  0  0  0  0  0  0  0  0  0  0
   25.4919  -15.0284    0.0000 F   0  0  0  0  0  0  0  0  0  0  0  0
   23.5256  -13.2727    0.0000 F   0  0  0  0  0  0  0  0  0  0  0  0
   21.8402  -12.2194    0.0000 F   0  0  0  0  0  0  0  0  0  0  0  0
   22.5424  -14.9581    0.0000 F   0  0  0  0  0  0  0  0  0  0  0  0
   14.7000  -19.8800    0.0000 Cl  0  0  0  0  0  0  0  0  0  0  0  0
  1  2  2  0     0  0
  2  3  1  0     0  0
  3  4  2  0     0  0
  4  5  1  0     0  0
  5  6  2  0     0  0
  1  6  1  0     0  0
  4  7  1  0     0  0
  7  8  2  0     0  0
  8  9  1  0     0  0
  5  9  1  0     0  0
  2 10  1  0     0  0
 10 11  1  0     0  0
  9 12  1  0     0  0
 12 13  1  0     0  0
 13 14  1  0     0  0
  8 15  1  0     0  0
 14 16  1  0     0  0
 15 17  1  0     0  0
 17 18  1  0     0  0
 18 19  1  0     0  0
 19 20  1  0     0  0
 20 21  1  0     0  0
 17 21  1  0     0  0
 20 22  2  0     0  0
 22 23  1  0     0  0
 23 24  2  0     0  0
 24 25  1  0     0  0
 21 25  2  0     0  0
 18 26  2  0     0  0
 27 28  1  0     0  0
 28 19  1  0     0  0
 19 27  1  0     0  0
 24 29  1  0     0  0
 16 30  1  0     0  0
 16 31  1  0     0  0
 16 32  1  0     0  0
M  END
