 
 
 
 71 74  0  0  1  0  0  0  0  0999 V2000
   14.7832  -14.4329    0.0000 C   0  0  0  0  0  0  0  0  0  0  0  0
   14.7832  -15.8342    0.0000 C   0  0  0  0  0  0  0  0  0  0  0  0
   15.9743  -16.5348    0.0000 C   0  0  0  0  0  0  0  0  0  0  0  0
   17.2354  -15.8342    0.0000 C   0  0  0  0  0  0  0  0  0  0  0  0
   17.2354  -14.4329    0.0000 C   0  0  0  0  0  0  0  0  0  0  0  0
   15.9743  -13.7323    0.0000 C   0  0  0  0  0  0  0  0  0  0  0  0
   18.4265  -13.7323    0.0000 O   0  0  0  0  0  0  0  0  0  0  0  0
   19.6175  -14.4329    0.0000 C   0  0  0  0  0  0  0  0  0  0  0  0
   20.8086  -13.7323    0.0000 C   0  0  0  0  0  0  0  0  0  0  0  0
   21.9997  -14.4329    0.0000 C   0  0  0  0  0  0  0  0  0  0  0  0
   23.1907  -13.7323    0.0000 C   0  0  0  0  0  0  0  0  0  0  0  0
   24.3818  -14.4329    0.0000 C   0  0  0  0  0  0  0  0  0  0  0  0
   25.5729  -13.7323    0.0000 C   0  0  0  0  0  0  0  0  0  0  0  0
   26.7639  -14.4329    0.0000 O   0  0  0  0  0  0  0  0  0  0  0  0
   25.5729  -12.3310    0.0000 O   0  0  0  0  0  0  0  0  0  0  0  0
   18.4265  -16.5348    0.0000 C   0  0  0  0  0  0  0  0  0  0  0  0
   23.1907  -12.3310    0.0000 C   0  0  0  0  0  0  0  0  0  0  0  0
   18.4265  -17.9360    0.0000 N   0  0  0  0  0  0  0  0  0  0  0  0
   19.5475  -18.7768    0.0000 C   0  0  0  0  0  0  0  0  0  0  0  0
   19.1271  -20.1080    0.0000 C   0  0  0  0  0  0  0  0  0  0  0  0
   17.6558  -20.1080    0.0000 N   0  0  0  0  0  0  0  0  0  0  0  0
   17.2354  -18.7768    0.0000 C   0  0  0  0  0  0  0  0  0  0  0  0
   15.9042  -18.3564    0.0000 C   0  0  0  0  0  0  0  0  0  0  0  0
   14.8533  -19.2672    0.0000 C   0  0  0  0  0  0  0  0  0  0  0  0
   13.5221  -18.8469    0.0000 C   0  0  0  0  0  0  0  0  0  0  0  0
   13.2418  -17.5157    0.0000 C   0  0  0  0  0  0  0  0  0  0  0  0
   14.2928  -16.5348    0.0000 C   0  0  0  0  0  0  0  0  0  0  0  0
   15.6240  -16.9552    0.0000 C   0  0  0  0  0  0  0  0  0  0  0  0
   11.9107  -17.0953    0.0000 C   0  0  0  0  0  0  0  0  0  0  0  0
   10.5795  -16.6749    0.0000 F   0  0  0  0  0  0  0  0  0  0  0  0
   12.3310  -15.7641    0.0000 F   0  0  0  0  0  0  0  0  0  0  0  0
   11.4903  -18.4265    0.0000 F   0  0  0  0  0  0  0  0  0  0  0  0
   20.8787  -18.3564    0.0000 C   0  0  0  0  0  0  0  0  0  0  0  0
   32.2000  -16.3100    0.0000 S   0  0  0  0  0  0  0  0  0  0  0  0
   32.2000  -14.9100    0.0000 O   0  0  0  0  0  0  0  0  0  0  0  0
   32.2000  -17.7100    0.0000 O   0  0  0  0  0  0  0  0  0  0  0  0
   30.8000  -16.3100    0.0000 O   0  0  0  0  0  0  0  0  0  0  0  0
   33.6000  -16.3100    0.0000 O   0  0  0  0  0  0  0  0  0  0  0  0
   14.7832  -14.4329    0.0000 C   0  0  0  0  0  0  0  0  0  0  0  0
   14.7832  -15.8342    0.0000 C   0  0  0  0  0  0  0  0  0  0  0  0
   15.9743  -16.5348    0.0000 C   0  0  0  0  0  0  0  0  0  0  0  0
   17.2354  -15.8342    0.0000 C   0  0  0  0  0  0  0  0  0  0  0  0
   17.2354  -14.4329    0.0000 C   0  0  0  0  0  0  0  0  0  0  0  0
   15.9743  -13.7323    0.0000 C   0  0  0  0  0  0  0  0  0  0  0  0
   18.4265  -13.7323    0.0000 O   0  0  0  0  0  0  0  0  0  0  0  0
   19.6175  -14.4329    0.0000 C   0  0  0  0  0  0  0  0  0  0  0  0
   20.8086  -13.7323    0.0000 C   0  0  0  0  0  0  0  0  0  0  0  0
   21.9997  -14.4329    0.0000 C   0  0  0  0  0  0  0  0  0  0  0  0
   23.1907  -13.7323    0.0000 C   0  0  0  0  0  0  0  0  0  0  0  0
   24.3818  -14.4329    0.0000 C   0  0  0  0  0  0  0  0  0  0  0  0
   25.5729  -13.7323    0.0000 C   0  0  0  0  0  0  0  0  0  0  0  0
   26.7639  -14.4329    0.0000 O   0  0  0  0  0  0  0  0  0  0  0  0
   25.5729  -12.3310    0.0000 O   0  0  0  0  0  0  0  0  0  0  0  0
   23.1907  -12.3310    0.0000 C   0  0  0  0  0  0  0  0  0  0  0  0
   18.4265  -16.5348    0.0000 C   0  0  0  0  0  0  0  0  0  0  0  0
   18.4265  -17.9360    0.0000 N   0  0  0  0  0  0  0  0  0  0  0  0
   19.5475  -18.7768    0.0000 C   0  0  0  0  0  0  0  0  0  0  0  0
   19.1271  -20.1080    0.0000 C   0  0  0  0  0  0  0  0  0  0  0  0
   17.6558  -20.1080    0.0000 N   0  0  0  0  0  0  0  0  0  0  0  0
   17.2354  -18.7768    0.0000 C   0  0  0  0  0  0  0  0  0  0  0  0
   15.9042  -18.3564    0.0000 C   0  0  0  0  0  0  0  0  0  0  0  0
   14.8533  -19.2672    0.0000 C   0  0  0  0  0  0  0  0  0  0  0  0
   13.5221  -18.8469    0.0000 C   0  0  0  0  0  0  0  0  0  0  0  0
   13.2418  -17.5157    0.0000 C   0  0  0  0  0  0  0  0  0  0  0  0
   14.2928  -16.5348    0.0000 C   0  0  0  0  0  0  0  0  0  0  0  0
   15.6240  -16.9552    0.0000 C   0  0  0  0  0  0  0  0  0  0  0  0
   11.9107  -17.0953    0.0000 C   0  0  0  0  0  0  0  0  0  0  0  0
   10.5795  -16.6749    0.0000 F   0  0  0  0  0  0  0  0  0  0  0  0
   12.3310  -15.7641    0.0000 F   0  0  0  0  0  0  0  0  0  0  0  0
   11.4903  -18.4265    0.0000 F   0  0  0  0  0  0  0  0  0  0  0  0
   20.8787  -18.3564    0.0000 C   0  0  0  0  0  0  0  0  0  0  0  0
 34 35  2  0     0  0
 34 36  2  0     0  0
 34 37  1  0     0  0
 34 38  1  0     0  0
  1  2  2  0     0  0
  2  3  1  0     0  0
  3  4  2  0     0  0
  4  5  1  0     0  0
  5  6  2  0     0  0
  1  6  1  0     0  0
  5  7  1  0     0  0
  7  8  1  0     0  0
  8  9  1  0     0  0
  9 10  1  0     0  0
 10 11  1  0     0  0
 11 12  1  0     0  0
 12 13  1  0     0  0
 13 14  1  0     0  0
 13 15  2  0     0  0
  4 16  1  0     0  0
 11 17  1  1     0  0
 16 18  1  0     0  0
 18 19  1  0     0  0
 19 20  2  0     0  0
 20 21  1  0     0  0
 21 22  2  0     0  0
 18 22  1  0     0  0
 22 23  1  0     0  0
 23 24  2  0     0  0
 24 25  1  0     0  0
 25 26  2  0     0  0
 26 27  1  0     0  0
 27 28  2  0     0  0
 23 28  1  0     0  0
 26 29  1  0     0  0
 29 30  1  0     0  0
 29 31  1  0     0  0
 29 32  1  0     0  0
 19 33  1  0     0  0
 39 40  2  0     0  0
 40 41  1  0     0  0
 41 42  2  0     0  0
 42 43  1  0     0  0
 43 44  2  0     0  0
 39 44  1  0     0  0
 43 45  1  0     0  0
 45 46  1  0     0  0
 46 47  1  0     0  0
 47 48  1  0     0  0
 48 49  1  0     0  0
 49 50  1  0     0  0
 50 51  1  0     0  0
 51 52  1  0     0  0
 51 53  2  0     0  0
 42 55  1  0     0  0
 49 54  1  1     0  0
 55 56  1  0     0  0
 56 57  1  0     0  0
 57 58  2  0     0  0
 58 59  1  0     0  0
 59 60  2  0     0  0
 56 60  1  0     0  0
 60 61  1  0     0  0
 61 62  2  0     0  0
 62 63  1  0     0  0
 63 64  2  0     0  0
 64 65  1  0     0  0
 65 66  2  0     0  0
 61 66  1  0     0  0
 64 67  1  0     0  0
 67 68  1  0     0  0
 67 69  1  0     0  0
 67 70  1  0     0  0
 57 71  1  0     0  0
M  STY  1   1 MUL
M  SLB  1   1   1
M  SCN  1   1 HT 
M  SAL   1 15   1   2   3   4   5   6   7   8   9  10  11  12  13  14  15
M  SAL   1 15  16  17  18  19  20  21  22  23  24  25  26  27  28  29  30
M  SAL   1 15  31  32  33  39  40  41  42  43  44  45  46  47  48  49  50
M  SAL   1 15  51  52  53  54  55  56  57  58  59  60  61  62  63  64  65
M  SAL   1  6  66  67  68  69  70  71
M  SPA   1 15   1   2   3   4   5   6   7   8   9  10  11  12  13  14  15
M  SPA   1 15  17  16  18  19  20  21  22  23  24  25  26  27  28  29  30
M  SPA   1  3  31  32  33
M  SDI   1  4    8.6800  -21.5600    8.6800  -10.2200
M  SDI   1  4   28.1400  -10.2200   28.1400  -21.5600
M  SMT   1 2
M  END
