 
 
 
 24 24  0  0  1  0  0  0  0  0999 V2000
   23.8823  -15.7122    0.0000 Cl  0  0  0  0  0  0  0  0  0  0  0  0
   14.1059  -17.5278    0.0000 C   0  0  0  0  0  0  0  0  0  0  0  0
   14.1059  -18.9245    0.0000 C   0  0  0  0  0  0  0  0  0  0  0  0
   15.2931  -19.6228    0.0000 C   0  0  0  0  0  0  0  0  0  0  0  0
   16.4802  -18.9245    0.0000 C   0  0  0  0  0  0  0  0  0  0  0  0
   16.4802  -17.5278    0.0000 C   0  0  0  0  0  0  0  0  0  0  0  0
   15.2931  -16.8994    0.0000 C   0  0  0  0  0  0  0  0  0  0  0  0
   18.7846  -18.9245    0.0000 C   0  0  0  0  0  0  0  0  0  0  0  0
   18.7846  -17.5278    0.0000 C   0  0  0  0  0  0  0  0  0  0  0  0
   17.5975  -16.8994    0.0000 C   0  0  0  0  0  0  0  0  0  0  0  0
   19.9718  -19.6228    0.0000 C   0  0  0  0  0  0  0  0  0  0  0  0
   21.1589  -18.9245    0.0000 C   0  0  0  0  0  0  0  0  0  0  0  0
   21.1589  -17.5278    0.0000 C   0  0  0  0  0  0  0  0  0  0  0  0
   19.9718  -16.8994    0.0000 C   0  0  0  0  0  0  0  0  0  0  0  0
   17.5975  -15.5027    0.0000 C   0  0  0  0  0  0  0  0  0  0  0  0
   18.7846  -14.8044    0.0000 C   0  0  0  0  0  0  0  0  0  0  0  0
   15.6422  -15.7821    0.0000 C   0  0  0  0  0  0  0  0  0  0  0  0
   19.9718  -15.5027    0.0000 C   0  0  0  0  0  0  0  0  0  0  0  0
   18.7846  -13.4776    0.0000 N   0  0  0  0  0  0  0  0  0  0  0  0
   19.9718  -12.7793    0.0000 C   0  0  0  0  0  0  0  0  0  0  0  0
   17.5975  -12.7793    0.0000 C   0  0  0  0  0  0  0  0  0  0  0  0
   15.6422  -14.4553    0.0000 O   0  0  0  0  0  0  0  0  0  0  0  0
   14.4551  -16.4804    0.0000 C   0  0  0  0  0  0  0  0  0  0  0  0
   13.3378  -15.7821    0.0000 C   0  0  0  0  0  0  0  0  0  0  0  0
  2  3  2  0     0  0
  3  4  1  0     0  0
  4  5  2  0     0  0
  5  6  1  0     0  0
  6  7  2  0     0  0
  2  7  1  0     0  0
  8  9  1  0     0  0
  9 10  1  0     0  0
  6 10  1  0     0  0
  8 11  2  0     0  0
 11 12  1  0     0  0
 12 13  2  0     0  0
 13 14  1  0     0  0
  9 14  2  0     0  0
 10 15  1  0     0  0
 15 16  1  0     0  0
 10 17  1  0     0  0
 16 18  1  1     0  0
 16 19  1  0     0  0
 19 20  1  0     0  0
 19 21  1  0     0  0
 17 22  2  0     0  0
 17 23  1  0     0  0
 23 24  1  0     0  0
M  END
