 
 
 
 39 41  0  0  1  0  0  0  0  0999 V2000
   13.8600  -18.9700    0.0000 N   0  0  0  0  0  0  0  0  0  0  0  0
   12.6700  -19.5300    0.0000 C   0  0  0  0  0  0  0  0  0  0  0  0
   12.3200  -20.9300    0.0000 C   0  0  0  0  0  0  0  0  0  0  0  0
   13.1600  -22.1200    0.0000 C   0  0  0  0  0  0  0  0  0  0  0  0
   15.1900  -19.6000    0.0000 C   0  0  0  0  0  0  0  0  0  0  0  0
   14.5600  -22.1200    0.0000 N   0  0  0  0  0  0  0  0  0  0  0  0
   15.4700  -21.0000    0.0000 C   0  0  0  0  0  0  0  0  0  0  0  0
   10.9900  -21.3500    0.0000 C   0  0  0  0  0  0  0  0  0  0  0  0
    9.8700  -20.3700    0.0000 C   0  0  0  0  0  0  0  0  0  0  0  0
   10.2200  -18.9700    0.0000 C   0  0  0  0  0  0  0  0  0  0  0  0
   11.6900  -18.5500    0.0000 C   0  0  0  0  0  0  0  0  0  0  0  0
   12.4600  -23.3100    0.0000 C   0  0  0  0  0  0  0  0  0  0  0  0
   13.8600  -17.5000    0.0000 C   0  0  0  0  0  0  0  0  0  0  0  0
   16.2400  -18.6900    0.0000 O   0  0  0  0  0  0  0  0  0  0  0  0
   11.0600  -23.3100    0.0000 C   0  0  0  0  0  0  0  0  0  0  0  0
   10.3600  -24.5000    0.0000 C   0  0  0  0  0  0  0  0  0  0  0  0
   11.0600  -25.6900    0.0000 C   0  0  0  0  0  0  0  0  0  0  0  0
   12.3900  -25.6900    0.0000 C   0  0  0  0  0  0  0  0  0  0  0  0
   13.0900  -24.5000    0.0000 C   0  0  0  0  0  0  0  0  0  0  0  0
   16.6600  -21.7000    0.0000 N   0  0  0  0  0  0  0  0  0  0  0  0
   17.8500  -21.0000    0.0000 C   0  0  0  0  0  0  0  0  0  0  0  0
   19.0400  -21.7000    0.0000 C   0  0  0  0  0  0  0  0  0  0  0  0
   17.8500  -19.6000    0.0000 O   0  0  0  0  0  0  0  0  0  0  0  0
   20.2581  -21.0099    0.0000 C   0  0  0  0  0  0  0  0  0  0  0  0
   19.0286  -23.1000    0.0000 C   0  0  0  0  0  0  0  0  0  0  0  0
   17.8192  -23.7852    0.0000 C   0  0  0  0  0  0  0  0  0  0  0  0
   17.8774  -25.1994    0.0000 C   0  0  0  0  0  0  0  0  0  0  0  0
   16.4774  -25.1994    0.0000 F   0  0  0  0  0  0  0  0  0  0  0  0
   19.2774  -25.1994    0.0000 F   0  0  0  0  0  0  0  0  0  0  0  0
   17.8774  -26.5994    0.0000 F   0  0  0  0  0  0  0  0  0  0  0  0
   21.4395  -21.7050    0.0000 C   0  0  0  0  0  0  0  0  0  0  0  0
   20.1998  -19.6006    0.0000 C   0  0  0  0  0  0  0  0  0  0  0  0
   18.9831  -18.9634    0.0000 O   0  0  0  0  0  0  0  0  0  0  0  0
   21.4039  -18.8371    0.0000 N   0  0  0  0  0  0  0  0  0  0  0  0
   22.6449  -21.0220    0.0000 C   0  0  0  0  0  0  0  0  0  0  0  0
   23.8161  -21.7109    0.0000 C   0  0  0  0  0  0  0  0  0  0  0  0
   25.0285  -22.4109    0.0000 F   0  0  0  0  0  0  0  0  0  0  0  0
   23.1161  -22.9233    0.0000 F   0  0  0  0  0  0  0  0  0  0  0  0
   24.5161  -20.4985    0.0000 F   0  0  0  0  0  0  0  0  0  0  0  0
  3  4  1  0     0  0
  1  5  1  0     0  0
  4  6  2  0     0  0
  2  3  1  0     0  0
  5  7  1  0     0  0
  1  2  1  0     0  0
  6  7  1  0     0  0
  3  8  2  0     0  0
  8  9  1  0     0  0
  9 10  2  0     0  0
 10 11  1  0     0  0
  2 11  2  0     0  0
  4 12  1  0     0  0
  1 13  1  0     0  0
  5 14  2  0     0  0
 12 15  2  0     0  0
 15 16  1  0     0  0
 16 17  2  0     0  0
 17 18  1  0     0  0
 18 19  2  0     0  0
 12 19  1  0     0  0
  7 20  1  1     0  0
 20 21  1  0     0  0
 22 21  1  1     0  0
 21 23  2  0     0  0
 22 24  1  0     0  0
 22 25  1  0     0  0
 25 26  1  0     0  0
 26 27  1  0     0  0
 27 28  1  0     0  0
 27 29  1  0     0  0
 27 30  1  0     0  0
 24 31  1  0     0  0
 24 32  1  1     0  0
 32 33  2  0     0  0
 32 34  1  0     0  0
 31 35  1  0     0  0
 35 36  1  0     0  0
 36 37  1  0     0  0
 36 38  1  0     0  0
 36 39  1  0     0  0
M  END
