 
 
 
 33 35  0  0  0  0  0  0  0  0999 V2000
    7.1400  -23.1700    0.0000 C   0  0  0  0  0  0  0  0  0  0  0  0
    7.1400  -24.5700    0.0000 C   0  0  0  0  0  0  0  0  0  0  0  0
    8.3524  -25.2700    0.0000 C   0  0  0  0  0  0  0  0  0  0  0  0
    9.5649  -24.5700    0.0000 C   0  0  0  0  0  0  0  0  0  0  0  0
    9.5649  -23.1700    0.0000 C   0  0  0  0  0  0  0  0  0  0  0  0
    8.3524  -22.4700    0.0000 C   0  0  0  0  0  0  0  0  0  0  0  0
    5.9276  -25.2700    0.0000 C   0  0  0  0  0  0  0  0  0  0  0  0
    4.7151  -25.9700    0.0000 N   0  0  0  0  0  0  0  0  0  0  0  0
    8.3524  -21.0702    0.0000 Cl  0  0  0  0  0  0  0  0  0  0  0  0
   10.7960  -25.2810    0.0000 O   0  0  0  0  0  0  0  0  0  0  0  0
   12.0012  -24.5853    0.0000 C   0  0  0  0  0  0  0  0  0  0  0  0
   13.1835  -25.2681    0.0000 C   0  0  0  0  0  0  0  0  0  0  0  0
   14.3960  -24.5683    0.0000 N   0  0  0  0  0  0  0  0  0  0  0  0
   14.3962  -23.1683    0.0000 C   0  0  0  0  0  0  0  0  0  0  0  0
   13.2138  -22.4855    0.0000 N   0  0  0  0  0  0  0  0  0  0  0  0
   12.0013  -23.1853    0.0000 C   0  0  0  0  0  0  0  0  0  0  0  0
   10.7589  -22.4678    0.0000 O   0  0  0  0  0  0  0  0  0  0  0  0
   13.1834  -26.6698    0.0000 C   0  0  0  0  0  0  0  0  0  0  0  0
   14.5834  -26.6698    0.0000 F   0  0  0  0  0  0  0  0  0  0  0  0
   11.7834  -26.6698    0.0000 F   0  0  0  0  0  0  0  0  0  0  0  0
   13.1834  -28.0698    0.0000 F   0  0  0  0  0  0  0  0  0  0  0  0
   13.2138  -21.0701    0.0000 C   0  0  0  0  0  0  0  0  0  0  0  0
   14.4384  -20.3630    0.0000 C   0  0  0  0  0  0  0  0  0  0  0  0
   15.6400  -21.0568    0.0000 C   0  0  0  0  0  0  0  0  0  0  0  0
   16.8524  -20.3569    0.0000 C   0  0  0  0  0  0  0  0  0  0  0  0
   16.8525  -18.9569    0.0000 C   0  0  0  0  0  0  0  0  0  0  0  0
   15.6509  -18.2631    0.0000 N   0  0  0  0  0  0  0  0  0  0  0  0
   14.4384  -18.9630    0.0000 N   0  0  0  0  0  0  0  0  0  0  0  0
   18.0837  -21.0678    0.0000 C   0  0  0  0  0  0  0  0  0  0  0  0
   19.2962  -21.7678    0.0000 F   0  0  0  0  0  0  0  0  0  0  0  0
   17.3837  -22.2802    0.0000 F   0  0  0  0  0  0  0  0  0  0  0  0
   18.7837  -19.8553    0.0000 F   0  0  0  0  0  0  0  0  0  0  0  0
   18.0722  -18.2526    0.0000 O   0  0  0  0  0  0  0  0  0  0  0  0
  1  2  2  0     0  0
  2  3  1  0     0  0
  3  4  2  0     0  0
  4  5  1  0     0  0
  5  6  2  0     0  0
  1  6  1  0     0  0
  2  7  1  0     0  0
  7  8  3  0     0  0
  6  9  1  0     0  0
  4 10  1  0     0  0
 10 11  1  0     0  0
 11 12  2  0     0  0
 12 13  1  0     0  0
 13 14  2  0     0  0
 14 15  1  0     0  0
 15 16  1  0     0  0
 11 16  1  0     0  0
 16 17  2  0     0  0
 12 18  1  0     0  0
 18 19  1  0     0  0
 18 20  1  0     0  0
 18 21  1  0     0  0
 15 22  1  0     0  0
 22 23  1  0     0  0
 23 24  1  0     0  0
 24 25  2  0     0  0
 25 26  1  0     0  0
 26 27  1  0     0  0
 27 28  1  0     0  0
 23 28  2  0     0  0
 25 29  1  0     0  0
 29 30  1  0     0  0
 29 31  1  0     0  0
 29 32  1  0     0  0
 26 33  2  0     0  0
M  END
