 
     RDKit          2D

 44 47  0  0  0  0  0  0  0  0999 V2000
   25.9700  -17.6400    0.0000 C   0  0  0  0  0  0  0  0  0  0  0  0
   25.9700  -19.0400    0.0000 N   0  0  0  0  0  0  0  0  0  0  0  0
   24.7800  -16.9400    0.0000 C   0  0  0  0  0  0  0  0  0  0  0  0
   24.7800  -19.7400    0.0000 C   0  0  0  0  0  0  0  0  0  0  0  0
   23.5900  -17.6400    0.0000 N   0  0  0  0  0  0  0  0  0  0  0  0
   24.7800  -15.5400    0.0000 O   0  0  0  0  0  0  0  0  0  0  0  0
   23.5900  -19.0400    0.0000 C   0  0  0  0  0  0  0  0  0  0  0  0
   22.4000  -16.8700    0.0000 C   0  0  0  0  0  0  0  0  0  0  0  0
   22.3300  -19.7400    0.0000 C   0  0  0  0  0  0  0  0  0  0  0  0
   21.1400  -17.5700    0.0000 C   0  0  0  0  0  0  0  0  0  0  0  0
   22.4000  -15.4700    0.0000 C   0  0  0  0  0  0  0  0  0  0  0  0
   22.3300  -21.0700    0.0000 C   0  0  0  0  0  0  0  0  0  0  0  0
   19.9500  -16.8700    0.0000 C   0  0  0  0  0  0  0  0  0  0  0  0
   21.1400  -18.9700    0.0000 C   0  0  0  0  0  0  0  0  0  0  0  0
   21.1400  -14.7700    0.0000 C   0  0  0  0  0  0  0  0  0  0  0  0
   19.9500  -15.4700    0.0000 C   0  0  0  0  0  0  0  0  0  0  0  0
   23.5900  -14.7700    0.0000 C   0  0  0  0  0  0  0  0  0  0  0  0
   27.1600  -19.7400    0.0000 C   0  0  0  0  0  0  0  0  0  0  0  0
   28.4200  -19.0400    0.0000 C   0  0  0  0  0  0  0  0  0  0  0  0
   28.4200  -17.6400    0.0000 C   0  0  0  0  0  0  0  0  0  0  0  0
   27.2300  -16.9400    0.0000 C   0  0  0  0  0  0  0  0  0  0  0  0
   29.1386  -17.3775    0.0000 C   0  0  0  0  0  0  0  0  0  0  0  0
   29.1152  -18.7625    0.0000 C   0  0  0  0  0  0  0  0  0  0  0  0
   30.3483  -16.6996    0.0000 C   0  0  0  0  0  0  0  0  0  0  0  0
   27.9406  -16.6586    0.0000 C   0  0  0  0  0  0  0  0  0  0  0  0
   30.3015  -19.4695    0.0000 S   0  0  0  0  0  0  0  0  0  0  0  0
   27.9055  -19.4403    0.0000 C   0  0  0  0  0  0  0  0  0  0  0  0
   31.5345  -17.4125    0.0000 C   0  0  0  0  0  0  0  0  0  0  0  0
   30.3717  -15.3088    0.0000 O   0  0  0  0  0  0  0  0  0  0  0  0
   26.7310  -17.3481    0.0000 C   0  0  0  0  0  0  0  0  0  0  0  0
   31.5112  -18.7975    0.0000 N   0  0  0  0  0  0  0  0  0  0  0  0
   31.3591  -20.4571    0.0000 O   0  0  0  0  0  0  0  0  0  0  0  0
   29.1211  -20.5273    0.0000 O   0  0  0  0  0  0  0  0  0  0  0  0
   26.7135  -18.7391    0.0000 C   0  0  0  0  0  0  0  0  0  0  0  0
   32.7500  -16.7347    0.0000 C   0  0  0  0  0  0  0  0  0  0  0  0
   32.7149  -19.5105    0.0000 C   0  0  0  0  0  0  0  0  0  0  0  0
   33.9480  -17.4534    0.0000 N   0  0  0  0  0  0  0  0  0  0  0  0
   32.7734  -15.3438    0.0000 O   0  0  0  0  0  0  0  0  0  0  0  0
   35.1635  -16.7755    0.0000 C   0  0  0  0  0  0  0  0  0  0  0  0
   36.4943  -17.1641    0.0000 N   0  0  0  0  0  0  0  0  0  0  0  0
   35.1230  -15.3776    0.0000 S   0  0  0  0  0  0  0  0  0  0  0  0
   37.2806  -16.0189    0.0000 C   0  0  0  0  0  0  0  0  0  0  0  0
   36.4368  -14.9158    0.0000 C   0  0  0  0  0  0  0  0  0  0  0  0
   36.8219  -13.5763    0.0000 C   0  0  0  0  0  0  0  0  0  0  0  0
  1  2  1  0
  1  3  1  0
  2  4  1  0
  3  5  1  0
  3  6  2  0
  4  7  1  0
  5  8  1  0
  7  9  1  0
  8 10  2  0
  8 11  1  0
  9 12  1  0
 10 13  1  0
 10 14  1  0
 11 15  2  0
 13 16  2  0
 15 16  1  0
 11 17  1  0
  2 18  1  0
 18 19  1  0
 19 20  1  0
 20 21  1  0
  1 21  1  0
 22 23  2  0
 22 24  1  0
 22 25  1  0
 23 26  1  0
 23 27  1  0
 24 28  2  0
 24 29  1  0
 25 30  2  0
 26 31  1  0
 26 32  2  0
 26 33  2  0
 27 34  2  0
 28 35  1  0
 31 36  1  0
 35 37  1  0
 35 38  2  0
 37 39  1  0
 39 40  2  0
 39 41  1  0
 40 42  1  0
 41 43  1  0
 43 44  1  0
 28 31  1  0
 30 34  1  0
 42 43  2  0
M  END
