154572876
     RDKit          2D

 69 68  0  0  1  0  0  0  0  0999 V2000
    2.0000    8.7500    0.0000 Ga  0  0  0  0  0 15  0  0  0  0  0  0
    2.0000    4.7500    0.0000 O   0  0  0  0  0  0  0  0  0  0  0  0
    8.0622   -4.7500    0.0000 O   0  0  0  0  0  0  0  0  0  0  0  0
   10.6603  -10.2500    0.0000 O   0  0  0  0  0  0  0  0  0  0  0  0
    8.0622   10.2500    0.0000 O   0  0  0  0  0  0  0  0  0  0  0  0
    7.1962    1.7500    0.0000 O   0  0  0  0  0  0  0  0  0  0  0  0
    9.7942   -8.7500    0.0000 O   0  0  0  0  0  0  0  0  0  0  0  0
    7.1962    5.7500    0.0000 O   0  0  0  0  0  0  0  0  0  0  0  0
    6.3301    7.2500    0.0000 O   0  0  0  0  0  0  0  0  0  0  0  0
    2.8660    9.2500    0.0000 O   0  0  0  0  0  0  0  0  0  0  0  0
    3.7320    7.7500    0.0000 O   0  0  0  0  0  0  0  0  0  0  0  0
   11.5263  -10.7500    0.0000 O   0  0  0  0  0  0  0  0  0  0  0  0
   14.1244  -13.2500    0.0000 O   0  0  0  0  0  0  0  0  0  0  0  0
   14.9904  -11.7500    0.0000 O   0  0  0  0  0  0  0  0  0  0  0  0
    3.7320   14.7500    0.0000 O   0  0  0  0  0  0  0  0  0  0  0  0
    2.8660   13.2500    0.0000 O   0  0  0  0  0  0  0  0  0  0  0  0
   11.5263  -14.7500    0.0000 O   0  0  0  0  0  0  0  0  0  0  0  0
   10.6603  -13.2500    0.0000 O   0  0  0  0  0  0  0  0  0  0  0  0
    4.5981    6.2500    0.0000 N   0  0  0  0  0  0  0  0  0  0  0  0
    5.4641    8.7500    0.0000 N   0  0  0  0  0  0  0  0  0  0  0  0
    9.7942   -4.7500    0.0000 N   0  0  0  0  0  0  0  0  0  0  0  0
   12.3923   -9.2500    0.0000 N   0  0  0  0  0  0  0  0  0  0  0  0
    6.3301    0.2500    0.0000 N   0  0  0  0  0  0  0  0  0  0  0  0
   13.2583  -10.7500    0.0000 N   0  0  0  0  0  0  0  0  0  0  0  0
    4.5981    7.2500    0.0000 C   0  0  0  0  0  0  0  0  0  0  0  0
    5.4641    7.7500    0.0000 C   0  0  0  0  0  0  0  0  0  0  0  0
    3.7320    5.7500    0.0000 C   0  0  0  0  0  0  0  0  0  0  0  0
    6.3301    9.2500    0.0000 C   0  0  0  0  0  0  0  0  0  0  0  0
   10.6603   -7.2500    0.0000 C   0  0  0  0  0  0  0  0  0  0  0  0
   11.5263   -7.7500    0.0000 C   0  0  0  0  0  0  0  0  0  0  0  0
   10.6603   -6.2500    0.0000 C   0  0  0  0  0  0  0  0  0  0  0  0
    3.7320    4.7500    0.0000 C   0  0  0  0  0  0  0  0  0  0  0  0
    5.4641    5.7500    0.0000 C   0  0  0  0  0  0  0  0  0  0  0  0
   11.5263   -8.7500    0.0000 C   0  0  0  0  0  0  0  0  0  0  0  0
    4.5981    9.2500    0.0000 C   0  0  0  0  0  0  0  0  0  0  0  0
    8.0622   -1.7500    0.0000 C   0  0  0  0  0  0  0  0  0  0  0  0
    9.7942   -5.7500    0.0000 C   0  0  0  0  0  0  0  0  0  0  0  0
    6.3301   10.2500    0.0000 C   0  0  0  0  0  0  0  0  0  0  0  0
    8.0622   -2.7500    0.0000 C   0  0  0  0  0  0  0  0  0  0  0  0
    7.1962   -1.2500    0.0000 C   0  0  0  0  0  0  0  0  0  0  0  0
    4.5981    3.2500    0.0000 C   0  0  0  0  0  0  0  0  0  0  0  0
    8.9282   -3.2500    0.0000 C   0  0  0  0  0  0  0  0  0  0  0  0
    4.5981    4.2500    0.0000 C   0  0  0  0  0  0  0  0  0  0  0  0
    5.4641    2.7500    0.0000 C   0  0  0  0  0  0  0  0  0  0  0  0
    7.1962   -0.2500    0.0000 C   0  0  0  0  0  0  0  0  0  0  0  0
    2.8660    4.2500    0.0000 C   0  0  0  0  0  0  0  0  0  0  0  0
    5.4641    1.7500    0.0000 C   0  0  0  0  0  0  0  0  0  0  0  0
    5.4641   10.7500    0.0000 C   0  0  0  0  0  0  0  0  0  0  0  0
    8.9282   -4.2500    0.0000 C   0  0  0  0  0  0  0  0  0  0  0  0
    5.4641   11.7500    0.0000 C   0  0  0  0  0  0  0  0  0  0  0  0
    3.7320    2.7500    0.0000 C   0  0  0  0  0  0  0  0  0  0  0  0
    7.1962   10.7500    0.0000 C   0  0  0  0  0  0  0  0  0  0  0  0
    2.8660    3.2500    0.0000 C   0  0  0  0  0  0  0  0  0  0  0  0
    6.3301    1.2500    0.0000 C   0  0  0  0  0  0  0  0  0  0  0  0
   10.6603   -9.2500    0.0000 C   0  0  0  0  0  0  0  0  0  0  0  0
    6.3301    6.2500    0.0000 C   0  0  0  0  0  0  0  0  0  0  0  0
    4.5981   12.2500    0.0000 C   0  0  0  0  0  0  0  0  0  0  0  0
    3.7320    8.7500    0.0000 C   0  0  0  0  0  0  0  0  0  0  0  0
    6.3301   12.2500    0.0000 C   0  0  0  0  0  0  0  0  0  0  0  0
    7.1962   11.7500    0.0000 C   0  0  0  0  0  0  0  0  0  0  0  0
   12.3923  -10.2500    0.0000 C   0  0  0  0  0  0  0  0  0  0  0  0
   13.2583  -11.7500    0.0000 C   0  0  0  0  0  0  0  0  0  0  0  0
   12.3923  -12.2500    0.0000 C   0  0  0  0  0  0  0  0  0  0  0  0
    4.5981   13.2500    0.0000 C   0  0  0  0  0  0  0  0  0  0  0  0
   12.3923  -13.2500    0.0000 C   0  0  0  0  0  0  0  0  0  0  0  0
   14.1244  -12.2500    0.0000 C   0  0  0  0  0  0  0  0  0  0  0  0
    3.7320   13.7500    0.0000 C   0  0  0  0  0  0  0  0  0  0  0  0
   11.5263  -13.7500    0.0000 C   0  0  0  0  0  0  0  0  0  0  0  0
    7.7331    6.0600    0.0000 H   0  0  0  0  0  0  0  0  0  0  0  0
  2 46  1  0
  3 49  2  0
  4 55  1  0
  5 52  1  0
  6 54  2  0
  7 55  2  0
  8 56  1  0
  9 56  2  0
 10 58  1  0
 11 58  2  0
 12 61  2  0
 13 66  1  0
 14 66  2  0
 15 67  1  0
 16 67  2  0
 17 68  1  0
 18 68  2  0
 19 25  1  0
 19 27  1  0
 19 33  1  0
 20 26  1  0
 20 28  1  0
 20 35  1  0
 21 37  1  0
 21 49  1  0
 34 22  1  0
 22 61  1  0
 23 45  1  0
 23 54  1  0
 24 61  1  0
 62 24  1  0
 25 26  1  0
 27 32  1  0
 28 38  1  0
 29 30  1  0
 29 31  1  0
 34 30  1  6
 31 37  1  0
 32 43  1  0
 32 46  2  0
 33 56  1  0
 34 55  1  0
 35 58  1  0
 36 39  1  0
 36 40  1  0
 38 48  2  0
 38 52  1  0
 39 42  1  0
 40 45  1  0
 41 43  2  0
 41 44  1  0
 41 51  1  0
 42 49  1  0
 44 47  1  0
 46 53  1  0
 47 54  1  0
 48 50  1  0
 50 57  1  0
 50 59  2  0
 51 53  2  0
 52 60  2  0
 57 64  1  0
 59 60  1  0
 62 63  1  6
 62 66  1  0
 63 65  1  0
 64 67  1  0
 65 68  1  0
M  CHG  6   1   3   2  -1   5  -1   8  -1  10  -1  69   1
M  ISO  1   1  68
M  END
