 
 
 
 31 35  0  0  1  0  0  0  0  0999 V2000
    9.9400  -22.2600    0.0000 C   0  0  0  0  0  0  0  0  0  0  0  0
    9.9400  -20.8600    0.0000 N   0  0  0  0  0  0  0  0  0  0  0  0
   11.1300  -20.1600    0.0000 C   0  0  0  0  0  0  0  0  0  0  0  0
   12.3900  -20.8600    0.0000 C   0  0  0  0  0  0  0  0  0  0  0  0
   12.3900  -22.2600    0.0000 C   0  0  0  0  0  0  0  0  0  0  0  0
   11.1300  -22.9600    0.0000 N   0  0  0  0  0  0  0  0  0  0  0  0
   13.7200  -20.4400    0.0000 C   0  0  0  0  0  0  0  0  0  0  0  0
   14.4900  -21.5600    0.0000 C   0  0  0  0  0  0  0  0  0  0  0  0
   13.7200  -22.6800    0.0000 N   0  0  0  0  0  0  0  0  0  0  0  0
   11.1300  -18.7600    0.0000 N   0  0  0  0  0  0  0  0  0  0  0  0
    9.9400  -18.0600    0.0000 C   0  0  0  0  0  0  0  0  0  0  0  0
   12.3200  -18.0600    0.0000 C   0  0  0  0  0  0  0  0  0  0  0  0
   12.5300  -16.6600    0.0000 C   0  0  0  0  0  0  0  0  0  0  0  0
   13.8600  -16.3800    0.0000 C   0  0  0  0  0  0  0  0  0  0  0  0
   14.5600  -17.5700    0.0000 C   0  0  0  0  0  0  0  0  0  0  0  0
   13.6500  -18.6200    0.0000 C   0  0  0  0  0  0  0  0  0  0  0  0
   14.8400  -15.3300    0.0000 C   0  0  0  0  0  0  0  0  0  0  0  0
   16.1000  -15.8900    0.0000 N   0  0  0  0  0  0  0  0  0  0  0  0
   15.9600  -17.2900    0.0000 C   0  0  0  0  0  0  0  0  0  0  0  0
   17.2900  -15.1900    0.0000 C   0  0  0  0  0  0  0  0  0  0  0  0
   18.4800  -15.8900    0.0000 N   0  0  0  0  0  0  0  0  0  0  0  0
   17.2900  -13.7900    0.0000 O   0  0  0  0  0  0  0  0  0  0  0  0
   19.6700  -15.1900    0.0000 C   0  0  0  0  0  0  0  0  0  0  0  0
   19.6700  -13.7900    0.0000 S   0  0  0  0  0  0  0  0  0  0  0  0
   21.0000  -13.3000    0.0000 N   0  0  0  0  0  0  0  0  0  0  0  0
   21.8400  -14.4900    0.0000 C   0  0  0  0  0  0  0  0  0  0  0  0
   21.0700  -15.6100    0.0000 N   0  0  0  0  0  0  0  0  0  0  0  0
   23.2400  -14.4900    0.0000 O   0  0  0  0  0  0  0  0  0  0  0  0
   15.2600  -18.7600    0.0000 H   0  0  0  0  0  0  0  0  0  0  0  0
   13.1600  -15.1900    0.0000 H   0  0  0  0  0  0  0  0  0  0  0  0
   23.9351  -13.2747    0.0000 C   0  0  0  0  0  0  0  0  0  0  0  0
  1  2  2  0     0  0
  2  3  1  0     0  0
  3  4  2  0     0  0
  4  5  1  0     0  0
  5  6  2  0     0  0
  1  6  1  0     0  0
  4  7  1  0     0  0
  7  8  2  0     0  0
  8  9  1  0     0  0
  5  9  1  0     0  0
  3 10  1  0     0  0
 10 11  1  0     0  0
 12 10  1  1     0  0
 12 13  1  0     0  0
 13 14  1  0     0  0
 14 15  1  0     0  0
 15 16  1  0     0  0
 12 16  1  0     0  0
 14 17  1  0     0  0
 17 18  1  0     0  0
 18 19  1  0     0  0
 15 19  1  0     0  0
 18 20  1  0     0  0
 20 21  1  0     0  0
 20 22  2  0     0  0
 21 23  1  0     0  0
 23 24  1  0     0  0
 24 25  1  0     0  0
 25 26  2  0     0  0
 26 27  1  0     0  0
 23 27  2  0     0  0
 26 28  1  0     0  0
 15 29  1  1     0  0
 14 30  1  1     0  0
 28 31  1  0     0  0
M  END
