 
 
 
 47 49  0  0  0  0  0  0  0  0999 V2000
   20.2088  -20.1386    0.0000 C   0  0  0  0  0  0  0  0  0  0  0  0
   20.2088  -18.7353    0.0000 C   0  0  0  0  0  0  0  0  0  0  0  0
   21.4017  -18.0336    0.0000 C   0  0  0  0  0  0  0  0  0  0  0  0
   22.6647  -18.7353    0.0000 C   0  0  0  0  0  0  0  0  0  0  0  0
   22.6647  -20.1386    0.0000 C   0  0  0  0  0  0  0  0  0  0  0  0
   21.4017  -20.8403    0.0000 C   0  0  0  0  0  0  0  0  0  0  0  0
   23.8576  -20.8403    0.0000 N   0  0  0  0  0  0  0  0  0  0  0  0
   19.0159  -18.0336    0.0000 N   0  0  0  0  0  0  0  0  0  0  0  0
   21.4017  -16.6302    0.0000 O   0  0  0  0  0  0  0  0  0  0  0  0
   25.0504  -20.1386    0.0000 C   0  0  0  0  0  0  0  0  0  0  0  0
   26.3135  -20.8403    0.0000 C   0  0  0  0  0  0  0  0  0  0  0  0
   26.3135  -22.2437    0.0000 O   0  0  0  0  0  0  0  0  0  0  0  0
   25.1206  -22.9454    0.0000 C   0  0  0  0  0  0  0  0  0  0  0  0
   23.8576  -22.2437    0.0000 C   0  0  0  0  0  0  0  0  0  0  0  0
   21.4017  -22.2437    0.0000 N   0  0  0  0  0  0  0  0  0  0  0  0
   20.2088  -22.9454    0.0000 C   0  0  0  0  0  0  0  0  0  0  0  0
   19.0159  -22.2437    0.0000 C   0  0  0  0  0  0  0  0  0  0  0  0
   20.2088  -24.3488    0.0000 O   0  0  0  0  0  0  0  0  0  0  0  0
   17.8231  -22.9454    0.0000 C   0  0  0  0  0  0  0  0  0  0  0  0
   22.5945  -15.9285    0.0000 C   0  0  0  0  0  0  0  0  0  0  0  0
   19.0159  -16.6302    0.0000 C   0  0  0  0  0  0  0  0  0  0  0  0
   20.2088  -15.9285    0.0000 N   0  0  0  0  0  0  0  0  0  0  0  0
   20.2088  -14.5251    0.0000 C   0  0  0  0  0  0  0  0  0  0  0  0
   19.0159  -13.8234    0.0000 C   0  0  0  0  0  0  0  0  0  0  0  0
   17.8231  -14.5251    0.0000 C   0  0  0  0  0  0  0  0  0  0  0  0
   17.8231  -15.9285    0.0000 N   0  0  0  0  0  0  0  0  0  0  0  0
   16.6302  -13.8234    0.0000 N   0  0  0  0  0  0  0  0  0  0  0  0
   16.6302  -12.4201    0.0000 N   0  0  0  0  0  0  0  0  0  0  0  0
   15.2970  -11.9990    0.0000 C   0  0  0  0  0  0  0  0  0  0  0  0
   14.4550  -13.1217    0.0000 C   0  0  0  0  0  0  0  0  0  0  0  0
   15.2268  -14.2444    0.0000 C   0  0  0  0  0  0  0  0  0  0  0  0
   14.8760  -10.6658    0.0000 C   0  0  0  0  0  0  0  0  0  0  0  0
   15.7882   -9.6133    0.0000 C   0  0  0  0  0  0  0  0  0  0  0  0
   15.3671   -8.2801    0.0000 C   0  0  0  0  0  0  0  0  0  0  0  0
   14.0339   -7.9994    0.0000 C   0  0  0  0  0  0  0  0  0  0  0  0
   13.0516   -9.0520    0.0000 C   0  0  0  0  0  0  0  0  0  0  0  0
   13.4726  -10.3852    0.0000 C   0  0  0  0  0  0  0  0  0  0  0  0
   13.0516  -13.1217    0.0000 C   0  0  0  0  0  0  0  0  0  0  0  0
   12.3499  -14.3146    0.0000 N   0  0  0  0  0  0  0  0  0  0  0  0
   10.9465  -14.3146    0.0000 C   0  0  0  0  0  0  0  0  0  0  0  0
   13.0516  -15.5075    0.0000 C   0  0  0  0  0  0  0  0  0  0  0  0
   25.2700  -10.5700    0.0000 S   0  0  0  0  0  0  0  0  0  0  0  0
   23.8700  -10.5700    0.0000 C   0  0  0  0  0  0  0  0  0  0  0  0
   26.6700  -10.5700    0.0000 O   0  0  0  0  0  0  0  0  0  0  0  0
   25.2700   -9.1700    0.0000 O   0  0  0  0  0  0  0  0  0  0  0  0
   25.2700  -11.9700    0.0000 O   0  0  0  0  0  0  0  0  0  0  0  0
   27.0900  -14.3500    0.0000 O   0  0  0  0  0  0  0  0  0  0  0  0
  1  2  2  0     0  0
  2  3  1  0     0  0
  3  4  2  0     0  0
  4  5  1  0     0  0
  5  6  2  0     0  0
  1  6  1  0     0  0
  5  7  1  0     0  0
  2  8  1  0     0  0
  3  9  1  0     0  0
  7 10  1  0     0  0
 10 11  1  0     0  0
 11 12  1  0     0  0
 12 13  1  0     0  0
 13 14  1  0     0  0
  7 14  1  0     0  0
  6 15  1  0     0  0
 15 16  1  0     0  0
 16 17  1  0     0  0
 16 18  2  0     0  0
 17 19  2  0     0  0
  9 20  1  0     0  0
  8 21  1  0     0  0
 21 22  2  0     0  0
 22 23  1  0     0  0
 23 24  2  0     0  0
 24 25  1  0     0  0
 25 26  2  0     0  0
 21 26  1  0     0  0
 25 27  1  0     0  0
 27 28  1  0     0  0
 28 29  2  0     0  0
 29 30  1  0     0  0
 30 31  2  0     0  0
 27 31  1  0     0  0
 29 32  1  0     0  0
 32 33  2  0     0  0
 33 34  1  0     0  0
 34 35  2  0     0  0
 35 36  1  0     0  0
 36 37  2  0     0  0
 32 37  1  0     0  0
 30 38  1  0     0  0
 38 39  1  0     0  0
 39 40  1  0     0  0
 39 41  1  0     0  0
 42 43  1  0     0  0
 42 44  1  0     0  0
 42 45  2  0     0  0
 42 46  2  0     0  0
M  END
