 
 
 
 30 33  0  0  0  0  0  0  0  0999 V2000
    6.0200  -12.9500    0.0000 C   0  0  0  0  0  0  0  0  0  0  0  0
    7.2100  -13.6500    0.0000 C   0  0  0  0  0  0  0  0  0  0  0  0
    8.4000  -12.9500    0.0000 C   0  0  0  0  0  0  0  0  0  0  0  0
    9.5900  -13.6500    0.0000 N   0  0  0  0  0  0  0  0  0  0  0  0
   10.7800  -12.9500    0.0000 C   0  0  0  0  0  0  0  0  0  0  0  0
   11.9700  -13.6500    0.0000 C   0  0  0  0  0  0  0  0  0  0  0  0
   13.1600  -12.9500    0.0000 C   0  0  0  0  0  0  0  0  0  0  0  0
   14.3500  -13.7200    0.0000 N   0  0  0  0  0  0  0  0  0  0  0  0
   15.4000  -12.8800    0.0000 C   0  0  0  0  0  0  0  0  0  0  0  0
   14.9100  -11.6200    0.0000 C   0  0  0  0  0  0  0  0  0  0  0  0
   13.5800  -11.6200    0.0000 O   0  0  0  0  0  0  0  0  0  0  0  0
   16.5900  -13.5800    0.0000 C   0  0  0  0  0  0  0  0  0  0  0  0
   17.7800  -12.8800    0.0000 N   0  0  0  0  0  0  0  0  0  0  0  0
   16.5900  -14.9800    0.0000 O   0  0  0  0  0  0  0  0  0  0  0  0
   18.9700  -13.5800    0.0000 C   0  0  0  0  0  0  0  0  0  0  0  0
   20.1600  -12.8800    0.0000 C   0  0  0  0  0  0  0  0  0  0  0  0
   21.3781  -13.5701    0.0000 N   0  0  0  0  0  0  0  0  0  0  0  0
   22.5148  -12.8603    0.0000 C   0  0  0  0  0  0  0  0  0  0  0  0
   22.5734  -11.4603    0.0000 C   0  0  0  0  0  0  0  0  0  0  0  0
   21.3553  -10.7702    0.0000 C   0  0  0  0  0  0  0  0  0  0  0  0
   20.1486  -11.4800    0.0000 C   0  0  0  0  0  0  0  0  0  0  0  0
   18.9392  -10.7948    0.0000 F   0  0  0  0  0  0  0  0  0  0  0  0
    5.8850  -11.5565    0.0000 N   0  0  0  0  0  0  0  0  0  0  0  0
    4.5180  -11.2543    0.0000 C   0  0  0  0  0  0  0  0  0  0  0  0
    3.8081  -12.4610    0.0000 C   0  0  0  0  0  0  0  0  0  0  0  0
    4.7364  -13.5090    0.0000 N   0  0  0  0  0  0  0  0  0  0  0  0
    3.8278  -10.0362    0.0000 C   0  0  0  0  0  0  0  0  0  0  0  0
    2.4279  -10.0249    0.0000 C   0  0  0  0  0  0  0  0  0  0  0  0
    1.7181  -11.2316    0.0000 C   0  0  0  0  0  0  0  0  0  0  0  0
    2.4082  -12.4497    0.0000 C   0  0  0  0  0  0  0  0  0  0  0  0
  1  2  1  0     0  0
  2  3  1  0     0  0
  3  4  1  0     0  0
  4  5  1  0     0  0
  5  6  1  0     0  0
  6  7  1  0     0  0
  7  8  2  0     0  0
  8  9  1  0     0  0
  9 10  2  0     0  0
 10 11  1  0     0  0
  7 11  1  0     0  0
  9 12  1  0     0  0
 12 13  1  0     0  0
 12 14  2  0     0  0
 13 15  1  0     0  0
 15 16  1  0     0  0
 16 17  2  0     0  0
 17 18  1  0     0  0
 18 19  2  0     0  0
 19 20  1  0     0  0
 20 21  2  0     0  0
 16 21  1  0     0  0
 21 22  1  0     0  0
  1 23  2  0     0  0
 23 24  1  0     0  0
 24 25  1  0     0  0
 25 26  1  0     0  0
  1 26  1  0     0  0
 24 27  2  0     0  0
 27 28  1  0     0  0
 28 29  2  0     0  0
 29 30  1  0     0  0
 25 30  2  0     0  0
M  END
