 
     RDKit          2D

 28 31  0  0  1  0  0  0  0  0999 V2000
   16.3100   -9.0300    0.0000 C   0  0  0  0  0  0  0  0  0  0  0  0
   16.3100  -10.4300    0.0000 C   0  0  0  0  0  0  0  0  0  0  0  0
   15.1200  -11.1300    0.0000 C   0  0  0  0  0  0  0  0  0  0  0  0
   13.8600  -10.4300    0.0000 C   0  0  0  0  0  0  0  0  0  0  0  0
   13.8600   -9.0300    0.0000 C   0  0  0  0  0  0  0  0  0  0  0  0
   15.1200   -8.3300    0.0000 C   0  0  0  0  0  0  0  0  0  0  0  0
   12.5300  -10.8500    0.0000 N   0  0  0  0  0  0  0  0  0  0  0  0
   11.7600   -9.7300    0.0000 C   0  0  0  0  0  0  0  0  0  0  0  0
   12.5300   -8.6100    0.0000 N   0  0  0  0  0  0  0  0  0  0  0  0
   10.3600   -9.7300    0.0000 C   0  0  0  0  0  0  0  0  0  0  0  0
   17.5000   -8.3300    0.0000 C   0  0  0  0  0  0  0  0  0  0  0  0
   18.6900   -9.0300    0.0000 N   0  0  0  0  0  0  0  0  0  0  0  0
   17.5000   -6.9300    0.0000 O   0  0  0  0  0  0  0  0  0  0  0  0
   19.8800   -8.3300    0.0000 C   0  0  0  0  0  0  0  0  0  0  0  0
   18.6900  -10.4300    0.0000 C   0  0  0  0  0  0  0  0  0  0  0  0
   15.1200  -12.5300    0.0000 O   0  0  0  0  0  0  0  0  0  0  0  0
   16.3100  -13.2300    0.0000 C   0  0  0  0  0  0  0  0  0  0  0  0
   17.5000  -12.5300    0.0000 C   0  0  0  0  0  0  0  0  0  0  0  0
   18.7600  -13.2300    0.0000 C   0  0  0  0  0  0  0  0  0  0  0  0
   18.7600  -14.6300    0.0000 O   0  0  0  0  0  0  0  0  0  0  0  0
   17.5700  -15.3300    0.0000 C   0  0  0  0  0  0  0  0  0  0  0  0
   16.3100  -14.6300    0.0000 C   0  0  0  0  0  0  0  0  0  0  0  0
   17.5700  -16.7300    0.0000 C   0  0  0  0  0  0  0  0  0  0  0  0
   16.3100  -17.4300    0.0000 C   0  0  0  0  0  0  0  0  0  0  0  0
   15.1200  -16.7300    0.0000 C   0  0  0  0  0  0  0  0  0  0  0  0
   15.1200  -15.3300    0.0000 C   0  0  0  0  0  0  0  0  0  0  0  0
   13.9300  -14.6300    0.0000 F   0  0  0  0  0  0  0  0  0  0  0  0
   16.3100  -18.8300    0.0000 F   0  0  0  0  0  0  0  0  0  0  0  0
  1  2  2  0
  2  3  1  0
  3  4  2  0
  4  5  1  0
  5  6  2  0
  1  6  1  0
  4  7  1  0
  7  8  1  0
  8  9  2  0
  5  9  1  0
  8 10  1  0
  1 11  1  0
 11 12  1  0
 11 13  2  0
 12 14  1  0
 12 15  1  0
  3 16  1  0
 17 16  1  1
 17 18  1  0
 18 19  1  0
 19 20  1  0
 20 21  1  0
 21 22  2  0
 17 22  1  0
 21 23  1  0
 23 24  2  0
 24 25  1  0
 25 26  2  0
 22 26  1  0
 26 27  1  0
 24 28  1  0
M  END
