 
 
 
 49 54  0  0  1  0  0  0  0  0999 V2000
   17.2290  -14.7777    0.0000 C   0  0  0  0  0  0  0  0  0  0  0  0
   17.2290  -13.3770    0.0000 C   0  0  0  0  0  0  0  0  0  0  0  0
   16.0383  -12.6766    0.0000 N   0  0  0  0  0  0  0  0  0  0  0  0
   14.7777  -13.3770    0.0000 C   0  0  0  0  0  0  0  0  0  0  0  0
   14.7777  -14.7777    0.0000 C   0  0  0  0  0  0  0  0  0  0  0  0
   16.0383  -15.4780    0.0000 C   0  0  0  0  0  0  0  0  0  0  0  0
   18.4196  -15.4780    0.0000 C   0  0  0  0  0  0  0  0  0  0  0  0
   19.6802  -14.7777    0.0000 C   0  0  0  0  0  0  0  0  0  0  0  0
   19.6802  -13.3770    0.0000 C   0  0  0  0  0  0  0  0  0  0  0  0
   18.4196  -12.6766    0.0000 C   0  0  0  0  0  0  0  0  0  0  0  0
   20.8708  -12.6766    0.0000 O   0  0  0  0  0  0  0  0  0  0  0  0
   13.5871  -15.4780    0.0000 C   0  0  0  0  0  0  0  0  0  0  0  0
   13.5871  -16.8788    0.0000 C   0  0  0  0  0  0  0  0  0  0  0  0
   14.7777  -17.5791    0.0000 O   0  0  0  0  0  0  0  0  0  0  0  0
   16.0383  -16.8788    0.0000 C   0  0  0  0  0  0  0  0  0  0  0  0
   12.3964  -14.7777    0.0000 C   0  0  0  0  0  0  0  0  0  0  0  0
   11.1358  -15.4780    0.0000 C   0  0  0  0  0  0  0  0  0  0  0  0
   11.1358  -16.8788    0.0000 C   0  0  0  0  0  0  0  0  0  0  0  0
   12.3964  -17.5791    0.0000 C   0  0  0  0  0  0  0  0  0  0  0  0
    9.9452  -17.5791    0.0000 C   0  0  0  0  0  0  0  0  0  0  0  0
    8.6845  -18.2795    0.0000 F   0  0  0  0  0  0  0  0  0  0  0  0
   10.6455  -18.7698    0.0000 F   0  0  0  0  0  0  0  0  0  0  0  0
    9.2448  -16.3885    0.0000 F   0  0  0  0  0  0  0  0  0  0  0  0
   17.2290  -17.5791    0.0000 C   0  0  0  0  0  0  0  0  0  0  0  0
   17.2290  -18.9799    0.0000 C   0  0  0  0  0  0  0  0  0  0  0  0
   18.4896  -19.6802    0.0000 C   0  0  0  0  0  0  0  0  0  0  0  0
   19.6802  -18.9799    0.0000 C   0  0  0  0  0  0  0  0  0  0  0  0
   19.6802  -17.5791    0.0000 C   0  0  0  0  0  0  0  0  0  0  0  0
   18.4896  -16.8788    0.0000 C   0  0  0  0  0  0  0  0  0  0  0  0
   20.8708  -19.6802    0.0000 O   0  0  0  0  0  0  0  0  0  0  0  0
   22.0615  -18.9799    0.0000 C   0  0  0  0  0  0  0  0  0  0  0  0
   23.2521  -19.6802    0.0000 C   0  0  0  0  0  0  0  0  0  0  0  0
   24.4427  -18.9799    0.0000 N   0  0  0  0  0  0  0  0  0  0  0  0
   25.7734  -19.3300    0.0000 C   0  0  0  0  0  0  0  0  0  0  0  0
   26.1236  -17.9994    0.0000 C   0  0  0  0  0  0  0  0  0  0  0  0
   24.7929  -17.6492    0.0000 C   0  0  0  0  0  0  0  0  0  0  0  0
   27.3842  -17.2990    0.0000 C   0  0  0  0  0  0  0  0  0  0  0  0
   28.5749  -17.9994    0.0000 F   0  0  0  0  0  0  0  0  0  0  0  0
   30.5900  -16.2400    0.0000 C   0  0  0  0  0  0  0  0  0  0  0  0
   30.5900  -17.6400    0.0000 C   0  0  0  0  0  0  0  0  0  0  0  0
   31.8024  -18.3400    0.0000 C   0  0  0  0  0  0  0  0  0  0  0  0
   33.0149  -17.6400    0.0000 C   0  0  0  0  0  0  0  0  0  0  0  0
   33.0149  -16.2400    0.0000 C   0  0  0  0  0  0  0  0  0  0  0  0
   31.8024  -15.5400    0.0000 C   0  0  0  0  0  0  0  0  0  0  0  0
   31.8024  -19.7398    0.0000 C   0  0  0  0  0  0  0  0  0  0  0  0
   31.8024  -14.1402    0.0000 S   0  0  0  0  0  0  0  0  0  0  0  0
   30.4024  -14.1402    0.0000 O   0  0  0  0  0  0  0  0  0  0  0  0
   33.2024  -14.1402    0.0000 O   0  0  0  0  0  0  0  0  0  0  0  0
   31.8024  -12.7402    0.0000 O   0  0  0  0  0  0  0  0  0  0  0  0
  1  2  2  0     0  0
  2  3  1  0     0  0
  3  4  2  0     0  0
  4  5  1  0     0  0
  5  6  2  0     0  0
  1  6  1  0     0  0
  1  7  1  0     0  0
  7  8  2  0     0  0
  8  9  1  0     0  0
  9 10  2  0     0  0
  2 10  1  0     0  0
  9 11  1  0     0  0
  5 12  1  0     0  0
 12 13  1  0     0  0
 13 14  1  0     0  0
 14 15  1  0     0  0
  6 15  1  0     0  0
 12 16  2  0     0  0
 16 17  1  0     0  0
 17 18  2  0     0  0
 18 19  1  0     0  0
 13 19  2  0     0  0
 18 20  1  0     0  0
 20 21  1  0     0  0
 20 22  1  0     0  0
 20 23  1  0     0  0
 15 24  1  1     0  0
 24 25  2  0     0  0
 25 26  1  0     0  0
 26 27  2  0     0  0
 27 28  1  0     0  0
 28 29  2  0     0  0
 24 29  1  0     0  0
 27 30  1  0     0  0
 30 31  1  0     0  0
 31 32  1  0     0  0
 32 33  1  0     0  0
 33 34  1  0     0  0
 34 35  1  0     0  0
 35 36  1  0     0  0
 33 36  1  0     0  0
 35 37  1  0     0  0
 37 38  1  0     0  0
 39 40  2  0     0  0
 40 41  1  0     0  0
 41 42  2  0     0  0
 42 43  1  0     0  0
 43 44  2  0     0  0
 39 44  1  0     0  0
 41 45  1  0     0  0
 44 46  1  0     0  0
 46 47  2  0     0  0
 46 48  2  0     0  0
 46 49  1  0     0  0
M  END
