 
 
 
 29 32  0  0  0  0  0  0  0  0999 V2000
    5.9500  -15.1200    0.0000 C   0  0  0  0  0  0  0  0  0  0  0  0
    5.9500  -16.5200    0.0000 C   0  0  0  0  0  0  0  0  0  0  0  0
    7.1624  -17.2200    0.0000 C   0  0  0  0  0  0  0  0  0  0  0  0
    8.3749  -16.5200    0.0000 C   0  0  0  0  0  0  0  0  0  0  0  0
    8.3749  -15.1200    0.0000 C   0  0  0  0  0  0  0  0  0  0  0  0
    7.1624  -14.4200    0.0000 C   0  0  0  0  0  0  0  0  0  0  0  0
    9.6060  -14.4090    0.0000 C   0  0  0  0  0  0  0  0  0  0  0  0
   10.8112  -15.1047    0.0000 N   0  0  0  0  0  0  0  0  0  0  0  0
   12.0235  -14.4046    0.0000 N   0  0  0  0  0  0  0  0  0  0  0  0
   12.0235  -13.0046    0.0000 C   0  0  0  0  0  0  0  0  0  0  0  0
   10.8183  -12.3089    0.0000 C   0  0  0  0  0  0  0  0  0  0  0  0
    9.6059  -13.0090    0.0000 C   0  0  0  0  0  0  0  0  0  0  0  0
   13.2414  -12.3012    0.0000 O   0  0  0  0  0  0  0  0  0  0  0  0
   14.4534  -13.0007    0.0000 C   0  0  0  0  0  0  0  0  0  0  0  0
   14.4540  -14.4196    0.0000 C   0  0  0  0  0  0  0  0  0  0  0  0
   15.6667  -15.1190    0.0000 C   0  0  0  0  0  0  0  0  0  0  0  0
   16.8789  -14.4185    0.0000 N   0  0  0  0  0  0  0  0  0  0  0  0
   16.8782  -12.9996    0.0000 C   0  0  0  0  0  0  0  0  0  0  0  0
   15.6655  -12.3002    0.0000 C   0  0  0  0  0  0  0  0  0  0  0  0
   14.9667  -16.3315    0.0000 C   0  0  0  0  0  0  0  0  0  0  0  0
   16.3667  -16.3315    0.0000 C   0  0  0  0  0  0  0  0  0  0  0  0
   17.5782  -11.7872    0.0000 C   0  0  0  0  0  0  0  0  0  0  0  0
   18.2782  -12.9996    0.0000 C   0  0  0  0  0  0  0  0  0  0  0  0
    4.7376  -17.2200    0.0000 C   0  0  0  0  0  0  0  0  0  0  0  0
    3.4774  -16.6588    0.0000 C   0  0  0  0  0  0  0  0  0  0  0  0
    2.5543  -17.6839    0.0000 N   0  0  0  0  0  0  0  0  0  0  0  0
    3.2439  -18.8786    0.0000 N   0  0  0  0  0  0  0  0  0  0  0  0
    4.5932  -18.5919    0.0000 C   0  0  0  0  0  0  0  0  0  0  0  0
    9.6060  -17.2310    0.0000 O   0  0  0  0  0  0  0  0  0  0  0  0
  1  2  2  0     0  0
  2  3  1  0     0  0
  3  4  2  0     0  0
  4  5  1  0     0  0
  5  6  2  0     0  0
  1  6  1  0     0  0
  5  7  1  0     0  0
  7  8  2  0     0  0
  8  9  1  0     0  0
  9 10  2  0     0  0
 10 11  1  0     0  0
 11 12  2  0     0  0
  7 12  1  0     0  0
 10 13  1  0     0  0
 13 14  1  0     0  0
 14 15  1  0     0  0
 15 16  1  0     0  0
 16 17  1  0     0  0
 17 18  1  0     0  0
 18 19  1  0     0  0
 14 19  1  0     0  0
 16 20  1  0     0  0
 16 21  1  0     0  0
 18 22  1  0     0  0
 18 23  1  0     0  0
  2 24  1  0     0  0
 24 25  2  0     0  0
 25 26  1  0     0  0
 26 27  1  0     0  0
 27 28  2  0     0  0
 24 28  1  0     0  0
  4 29  1  0     0  0
M  END
