 
 
 
 12 13  0  0  0  0  0  0  0  0999 V2000
    9.5200  -13.5800    0.0000 C   0  0  0  0  0  0  0  0  0  0  0  0
   10.7100  -14.2800    0.0000 C   0  0  0  0  0  0  0  0  0  0  0  0
    8.3300  -14.2800    0.0000 C   0  0  0  0  0  0  0  0  0  0  0  0
   11.9000  -13.5800    0.0000 C   0  0  0  0  0  0  0  0  0  0  0  0
   13.1600  -14.1400    0.0000 S   0  0  0  0  0  0  0  0  0  0  0  0
   14.0700  -13.1600    0.0000 C   0  0  0  0  0  0  0  0  0  0  0  0
   13.4400  -11.9700    0.0000 C   0  0  0  0  0  0  0  0  0  0  0  0
   12.0400  -12.2500    0.0000 C   0  0  0  0  0  0  0  0  0  0  0  0
    7.0700  -13.7200    0.0000 N   0  0  0  0  0  0  0  0  0  0  0  0
    6.0900  -14.7700    0.0000 N   0  0  0  0  0  0  0  0  0  0  0  0
    6.7900  -15.9600    0.0000 C   0  0  0  0  0  0  0  0  0  0  0  0
    8.1900  -15.6800    0.0000 C   0  0  0  0  0  0  0  0  0  0  0  0
  1  2  2  0     0  0
  1  3  1  0     0  0
  2  4  1  0     0  0
  4  5  1  0     0  0
  5  6  1  0     0  0
  6  7  2  0     0  0
  7  8  1  0     0  0
  4  8  2  0     0  0
  3  9  2  0     0  0
  9 10  1  0     0  0
 10 11  1  0     0  0
 11 12  2  0     0  0
  3 12  1  0     0  0
M  END
