 
     RDKit          2D

 85 90  0  0  1  0  0  0  0  0999 V2000
   16.9289  -16.0195    0.0000 N   0  0  0  0  0  0  0  0  0  0  0  0
   15.8096  -15.1800    0.0000 C   0  0  0  0  0  0  0  0  0  0  0  0
   16.2293  -13.8509    0.0000 C   0  0  0  0  0  0  0  0  0  0  0  0
   17.6284  -13.8509    0.0000 C   0  0  0  0  0  0  0  0  0  0  0  0
   18.0481  -15.1800    0.0000 C   0  0  0  0  0  0  0  0  0  0  0  0
   16.9289  -12.6617    0.0000 C   0  0  0  0  0  0  0  0  0  0  0  0
   17.6284  -11.4725    0.0000 C   0  0  0  0  0  0  0  0  0  0  0  0
   16.2293  -11.4725    0.0000 C   0  0  0  0  0  0  0  0  0  0  0  0
   19.2373  -15.8796    0.0000 C   0  0  0  0  0  0  0  0  0  0  0  0
   20.4266  -15.1800    0.0000 N   0  0  0  0  0  0  0  0  0  0  0  0
   19.2373  -17.2786    0.0000 O   0  0  0  0  0  0  0  0  0  0  0  0
   21.6158  -15.8796    0.0000 C   0  0  0  0  0  0  0  0  0  0  0  0
   22.8750  -15.1800    0.0000 C   0  0  0  0  0  0  0  0  0  0  0  0
   21.6158  -17.2786    0.0000 C   0  0  0  0  0  0  0  0  0  0  0  0
   21.6158  -18.6777    0.0000 N   0  0  0  0  0  0  0  0  0  0  0  0
   24.0642  -15.8796    0.0000 C   0  0  0  0  0  0  0  0  0  0  0  0
   24.2740  -17.2786    0.0000 C   0  0  0  0  0  0  0  0  0  0  0  0
   25.6731  -17.5585    0.0000 N   0  0  0  0  0  0  0  0  0  0  0  0
   26.3727  -16.2993    0.0000 C   0  0  0  0  0  0  0  0  0  0  0  0
   25.3933  -15.2500    0.0000 C   0  0  0  0  0  0  0  0  0  0  0  0
   23.2247  -18.1880    0.0000 O   0  0  0  0  0  0  0  0  0  0  0  0
   16.9289  -17.4185    0.0000 C   0  0  0  0  0  0  0  0  0  0  0  0
   15.7396  -18.1181    0.0000 C   0  0  0  0  0  0  0  0  0  0  0  0
   18.1880  -18.1181    0.0000 O   0  0  0  0  0  0  0  0  0  0  0  0
   14.5504  -17.4185    0.0000 N   0  0  0  0  0  0  0  0  0  0  0  0
   15.7396  -19.5172    0.0000 C   0  0  0  0  0  0  0  0  0  0  0  0
   14.5504  -20.2167    0.0000 C   0  0  0  0  0  0  0  0  0  0  0  0
   16.9988  -20.2167    0.0000 C   0  0  0  0  0  0  0  0  0  0  0  0
   15.7396  -20.9162    0.0000 C   0  0  0  0  0  0  0  0  0  0  0  0
   13.3612  -18.1181    0.0000 C   0  0  0  0  0  0  0  0  0  0  0  0
   12.1720  -17.4185    0.0000 C   0  0  0  0  0  0  0  0  0  0  0  0
   13.3612  -19.5172    0.0000 O   0  0  0  0  0  0  0  0  0  0  0  0
   10.9828  -18.1181    0.0000 F   0  0  0  0  0  0  0  0  0  0  0  0
   12.1720  -16.0195    0.0000 F   0  0  0  0  0  0  0  0  0  0  0  0
   10.9128  -16.7190    0.0000 F   0  0  0  0  0  0  0  0  0  0  0  0
   33.1164  -17.1963    0.0000 C   0  0  0  0  0  0  0  0  0  0  0  0
   33.1237  -18.5903    0.0000 C   0  0  0  0  0  0  0  0  0  0  0  0
   34.3298  -16.5030    0.0000 C   0  0  0  0  0  0  0  0  0  0  0  0
   31.9103  -16.5103    0.0000 N   0  0  0  0  0  0  0  0  0  0  0  0
   34.1059  -19.5798    0.0000 C   0  0  0  0  0  0  0  0  0  0  0  0
   35.5358  -17.1892    0.0000 C   0  0  0  0  0  0  0  0  0  0  0  0
   30.7041  -17.2037    0.0000 C   0  0  0  0  0  0  0  0  0  0  0  0
   33.3982  -20.7786    0.0000 C   0  0  0  0  0  0  0  0  0  0  0  0
   35.4926  -19.5868    0.0000 C   0  0  0  0  0  0  0  0  0  0  0  0
   36.7348  -16.4960    0.0000 C   0  0  0  0  0  0  0  0  0  0  0  0
   35.5431  -18.5831    0.0000 O   0  0  0  0  0  0  0  0  0  0  0  0
   29.4983  -16.5175    0.0000 C   0  0  0  0  0  0  0  0  0  0  0  0
   30.7041  -18.5975    0.0000 O   0  0  0  0  0  0  0  0  0  0  0  0
   34.0915  -21.9846    0.0000 C   0  0  0  0  0  0  0  0  0  0  0  0
   36.1859  -20.7931    0.0000 C   0  0  0  0  0  0  0  0  0  0  0  0
   36.7348  -15.0948    0.0000 C   0  0  0  0  0  0  0  0  0  0  0  0
   37.9408  -17.1819    0.0000 N   0  0  0  0  0  0  0  0  0  0  0  0
   28.2849  -17.2108    0.0000 N   0  0  0  0  0  0  0  0  0  0  0  0
   29.4909  -14.6983    0.0000 C   0  0  0  0  0  0  0  0  0  0  0  0
   35.4782  -21.9919    0.0000 C   0  0  0  0  0  0  0  0  0  0  0  0
   35.5212  -14.3942    0.0000 C   0  0  0  0  0  0  0  0  0  0  0  0
   39.1540  -16.4886    0.0000 C   0  0  0  0  0  0  0  0  0  0  0  0
   27.0787  -16.5247    0.0000 C   0  0  0  0  0  0  0  0  0  0  0  0
   30.7041  -13.9977    0.0000 C   0  0  0  0  0  0  0  0  0  0  0  0
   28.2776  -13.9977    0.0000 C   0  0  0  0  0  0  0  0  0  0  0  0
   35.5212  -13.0004    0.0000 C   0  0  0  0  0  0  0  0  0  0  0  0
   34.3225  -15.1019    0.0000 C   0  0  0  0  0  0  0  0  0  0  0  0
   40.3603  -17.1748    0.0000 O   0  0  0  0  0  0  0  0  0  0  0  0
   39.1465  -15.0875    0.0000 O   0  0  0  0  0  0  0  0  0  0  0  0
   25.8799  -17.2181    0.0000 N   0  0  0  0  0  0  0  0  0  0  0  0
   27.0787  -15.1237    0.0000 O   0  0  0  0  0  0  0  0  0  0  0  0
   34.3153  -12.3071    0.0000 C   0  0  0  0  0  0  0  0  0  0  0  0
   33.1092  -14.4013    0.0000 C   0  0  0  0  0  0  0  0  0  0  0  0
   41.5663  -16.4815    0.0000 C   0  0  0  0  0  0  0  0  0  0  0  0
   24.6737  -16.5321    0.0000 C   0  0  0  0  0  0  0  0  0  0  0  0
   25.8799  -18.6120    0.0000 C   0  0  0  0  0  0  0  0  0  0  0  0
   33.1092  -13.0075    0.0000 C   0  0  0  0  0  0  0  0  0  0  0  0
   42.7723  -17.1675    0.0000 C   0  0  0  0  0  0  0  0  0  0  0  0
   23.4604  -17.2252    0.0000 C   0  0  0  0  0  0  0  0  0  0  0  0
   42.7653  -18.5615    0.0000 C   0  0  0  0  0  0  0  0  0  0  0  0
   44.1013  -16.7485    0.0000 S   0  0  0  0  0  0  0  0  0  0  0  0
   22.1171  -16.8642    0.0000 N   0  0  0  0  0  0  0  0  0  0  0  0
   23.4626  -18.6191    0.0000 C   0  0  0  0  0  0  0  0  0  0  0  0
   44.0868  -18.9947    0.0000 N   0  0  0  0  0  0  0  0  0  0  0  0
   44.9100  -17.8754    0.0000 C   0  0  0  0  0  0  0  0  0  0  0  0
   21.3445  -18.0341    0.0000 C   0  0  0  0  0  0  0  0  0  0  0  0
   22.2256  -19.1175    0.0000 S   0  0  0  0  0  0  0  0  0  0  0  0
   19.9506  -18.0296    0.0000 C   0  0  0  0  0  0  0  0  0  0  0  0
   19.1994  -16.8594    0.0000 C   0  0  0  0  0  0  0  0  0  0  0  0
   19.3149  -19.2789    0.0000 C   0  0  0  0  0  0  0  0  0  0  0  0
  1  2  1  0
  3  2  1  6
  3  4  1  0
  4  5  1  0
  1  5  1  0
  4  6  1  6
  6  3  1  0
  6  7  1  0
  6  8  1  0
  5  9  1  1
  9 10  1  0
  9 11  2  0
 12 10  1  0
 12 13  1  1
 12 14  1  0
 14 15  3  0
 16 13  1  6
 16 17  1  0
 17 18  1  0
 18 19  1  0
 19 20  1  0
 16 20  1  0
 17 21  2  0
  1 22  1  0
 22 23  1  0
 22 24  2  0
 23 25  1  6
 23 26  1  0
 26 27  1  0
 26 28  1  0
 26 29  1  0
 25 30  1  0
 30 31  1  0
 30 32  2  0
 31 33  1  0
 31 34  1  0
 31 35  1  0
 36 37  1  6
 36 38  1  0
 36 39  1  0
 37 40  1  0
 38 41  1  0
 39 42  1  0
 40 43  2  0
 40 44  1  0
 41 45  1  0
 41 46  1  1
 42 47  1  0
 42 48  2  0
 43 49  1  0
 44 50  2  0
 45 51  1  6
 45 52  1  0
 47 53  1  1
 47 54  1  0
 49 55  2  0
 51 56  1  0
 52 57  1  0
 53 58  1  0
 54 59  1  0
 54 60  1  0
 56 61  2  0
 56 62  1  0
 57 63  1  0
 57 64  2  0
 58 65  1  0
 58 66  2  0
 61 67  1  0
 62 68  2  0
 63 69  1  0
 65 70  1  0
 65 71  1  0
 67 72  2  0
 69 73  1  0
 70 74  1  0
 73 75  2  0
 73 76  1  0
 74 77  1  0
 74 78  2  0
 75 79  1  0
 76 80  1  0
 77 81  2  0
 78 82  1  0
 81 83  1  0
 83 84  1  0
 83 85  1  0
 50 55  1  0
 68 72  1  0
 79 80  2  0
 81 82  1  0
M  END
