 
 
 
 23 25  0  0  1  0  0  0  0  0999 V2000
   13.3000  -14.3500    0.0000 C   0  0  0  0  0  0  0  0  0  0  0  0
   13.3000  -15.7500    0.0000 C   0  0  0  0  0  0  0  0  0  0  0  0
   14.5124  -16.4500    0.0000 C   0  0  0  0  0  0  0  0  0  0  0  0
   15.7249  -15.7500    0.0000 C   0  0  0  0  0  0  0  0  0  0  0  0
   15.7249  -14.3500    0.0000 C   0  0  0  0  0  0  0  0  0  0  0  0
   14.5124  -13.6500    0.0000 C   0  0  0  0  0  0  0  0  0  0  0  0
   16.9373  -16.4500    0.0000 C   0  0  0  0  0  0  0  0  0  0  0  0
   18.1497  -15.7500    0.0000 C   0  0  0  0  0  0  0  0  0  0  0  0
   18.1497  -14.3500    0.0000 C   0  0  0  0  0  0  0  0  0  0  0  0
   16.9373  -13.6500    0.0000 N   0  0  0  0  0  0  0  0  0  0  0  0
   14.5124  -12.2500    0.0000 C   0  0  0  0  0  0  0  0  0  0  0  0
   14.5124  -10.8500    0.0000 N   0  0  0  0  0  0  0  0  0  0  0  0
   14.5124  -17.8498    0.0000 N   0  0  0  0  0  0  0  0  0  0  0  0
   13.2832  -18.5597    0.0000 C   0  0  0  0  0  0  0  0  0  0  0  0
   13.2834  -19.9597    0.0000 C   0  0  0  0  0  0  0  0  0  0  0  0
   14.4959  -20.6596    0.0000 C   0  0  0  0  0  0  0  0  0  0  0  0
   15.7251  -19.9497    0.0000 C   0  0  0  0  0  0  0  0  0  0  0  0
   15.7249  -18.5497    0.0000 C   0  0  0  0  0  0  0  0  0  0  0  0
   12.0877  -20.6502    0.0000 C   0  0  0  0  0  0  0  0  0  0  0  0
   16.9563  -20.6606    0.0000 N   0  0  0  0  0  0  0  0  0  0  0  0
   10.8752  -21.3502    0.0000 F   0  0  0  0  0  0  0  0  0  0  0  0
   11.3877  -19.4378    0.0000 F   0  0  0  0  0  0  0  0  0  0  0  0
   12.7877  -21.8626    0.0000 F   0  0  0  0  0  0  0  0  0  0  0  0
  1  2  2  0     0  0
  2  3  1  0     0  0
  3  4  2  0     0  0
  4  5  1  0     0  0
  5  6  2  0     0  0
  1  6  1  0     0  0
  4  7  1  0     0  0
  7  8  2  0     0  0
  8  9  1  0     0  0
  9 10  2  0     0  0
  5 10  1  0     0  0
  6 11  1  0     0  0
 11 12  3  0     0  0
  3 13  1  0     0  0
 13 14  1  0     0  0
 14 15  1  0     0  0
 15 16  1  0     0  0
 16 17  1  0     0  0
 17 18  1  0     0  0
 13 18  1  0     0  0
 15 19  1  6     0  0
 17 20  1  6     0  0
 19 21  1  0     0  0
 19 22  1  0     0  0
 19 23  1  0     0  0
M  END
