 
 
 
 14 13  0  0  1  0  0  0  0  0999 V2000
   21.8400  -11.3400    0.0000 C   0  0  0  0  0  0  0  0  0  0  0  0
   23.0300  -12.0400    0.0000 O   0  0  0  0  0  0  0  0  0  0  0  0
   20.6500  -12.0400    0.0000 C   0  0  0  0  0  0  0  0  0  0  0  0
   21.8400   -9.9400    0.0000 O   0  0  0  0  0  0  0  0  0  0  0  0
   19.4600  -11.3400    0.0000 C   0  0  0  0  0  0  0  0  0  0  0  0
   18.2700  -12.0400    0.0000 C   0  0  0  0  0  0  0  0  0  0  0  0
   17.0800  -11.3400    0.0000 O   0  0  0  0  0  0  0  0  0  0  0  0
   15.8900  -12.0400    0.0000 C   0  0  0  0  0  0  0  0  0  0  0  0
   14.7000  -11.3400    0.0000 C   0  0  0  0  0  0  0  0  0  0  0  0
   15.8900  -13.4400    0.0000 O   0  0  0  0  0  0  0  0  0  0  0  0
   13.5100  -12.0400    0.0000 C   0  0  0  0  0  0  0  0  0  0  0  0
   12.3200  -11.3400    0.0000 C   0  0  0  0  0  0  0  0  0  0  0  0
   13.5100  -13.4400    0.0000 C   0  0  0  0  0  0  0  0  0  0  0  0
   14.7000   -9.9400    0.0000 N   0  0  0  0  0  0  0  0  0  0  0  0
  1  2  1  0     0  0
  1  3  1  0     0  0
  1  4  2  0     0  0
  3  5  1  0     0  0
  5  6  1  0     0  0
  6  7  1  0     0  0
  7  8  1  0     0  0
  8  9  1  0     0  0
  8 10  2  0     0  0
  9 11  1  0     0  0
 11 12  1  0     0  0
 11 13  1  0     0  0
  9 14  1  6     0  0
M  END
