 
 
 
 95 99  0  0  1  0  0  0  0  0999 V2000
   19.2325  -20.8469    0.0000 C   0  0  0  0  0  0  0  0  0  0  0  0
   19.2325  -22.2507    0.0000 C   0  0  0  0  0  0  0  0  0  0  0  0
   20.4258  -22.9526    0.0000 C   0  0  0  0  0  0  0  0  0  0  0  0
   21.6892  -22.2507    0.0000 C   0  0  0  0  0  0  0  0  0  0  0  0
   21.6892  -20.8469    0.0000 C   0  0  0  0  0  0  0  0  0  0  0  0
   20.4258  -20.1450    0.0000 C   0  0  0  0  0  0  0  0  0  0  0  0
   22.9526  -20.1450    0.0000 C   0  0  0  0  0  0  0  0  0  0  0  0
   24.1459  -20.8469    0.0000 C   0  0  0  0  0  0  0  0  0  0  0  0
   18.0393  -20.1450    0.0000 C   0  0  0  0  0  0  0  0  0  0  0  0
   16.8460  -20.8469    0.0000 C   0  0  0  0  0  0  0  0  0  0  0  0
   15.6528  -20.1450    0.0000 C   0  0  0  0  0  0  0  0  0  0  0  0
   14.4595  -20.8469    0.0000 N   0  3  0  0  0  0  0  0  0  0  0  0
   14.4595  -22.2507    0.0000 C   0  0  0  0  0  0  0  0  0  0  0  0
   13.7576  -18.9517    0.0000 C   0  0  0  0  0  0  0  0  0  0  0  0
   13.4067  -20.2854    0.0000 C   0  0  0  0  0  0  0  0  0  0  0  0
   15.1614  -18.8815    0.0000 C   0  0  0  0  0  0  0  0  0  0  0  0
   13.2663  -22.9526    0.0000 C   0  0  0  0  0  0  0  0  0  0  0  0
   12.0730  -22.2507    0.0000 C   0  0  0  0  0  0  0  0  0  0  0  0
   10.8798  -22.9526    0.0000 C   0  0  0  0  0  0  0  0  0  0  0  0
    9.6865  -22.2507    0.0000 S   0  0  0  0  0  0  0  0  0  0  0  0
    8.3529  -21.5488    0.0000 O   0  5  0  0  0  0  0  0  0  0  0  0
   10.3884  -21.0575    0.0000 O   0  0  0  0  0  0  0  0  0  0  0  0
    8.9144  -23.4440    0.0000 O   0  0  0  0  0  0  0  0  0  0  0  0
   12.7749  -17.9691    0.0000 C   0  0  0  0  0  0  0  0  0  0  0  0
   11.3711  -18.3200    0.0000 C   0  0  0  0  0  0  0  0  0  0  0  0
   11.0202  -19.6537    0.0000 C   0  0  0  0  0  0  0  0  0  0  0  0
   12.0730  -20.6363    0.0000 C   0  0  0  0  0  0  0  0  0  0  0  0
   10.3884  -17.3373    0.0000 S   0  0  0  0  0  0  0  0  0  0  0  0
    9.2658  -16.3547    0.0000 O   0  5  0  0  0  0  0  0  0  0  0  0
    9.4058  -18.3200    0.0000 O   0  0  0  0  0  0  0  0  0  0  0  0
   11.3711  -16.3547    0.0000 O   0  0  0  0  0  0  0  0  0  0  0  0
   15.9335  -17.6883    0.0000 C   0  0  0  0  0  0  0  0  0  0  0  0
   14.4595  -17.6883    0.0000 C   0  0  0  0  0  0  0  0  0  0  0  0
   25.3391  -20.1450    0.0000 C   0  0  0  0  0  0  0  0  0  0  0  0
   26.5324  -20.8469    0.0000 N   0  0  0  0  0  0  0  0  0  0  0  0
   25.5497  -18.8114    0.0000 C   0  0  0  0  0  0  0  0  0  0  0  0
   27.5852  -19.8642    0.0000 C   0  0  0  0  0  0  0  0  0  0  0  0
   26.9535  -18.6008    0.0000 C   0  0  0  0  0  0  0  0  0  0  0  0
   26.5324  -22.2507    0.0000 C   0  0  0  0  0  0  0  0  0  0  0  0
   27.7256  -22.9526    0.0000 C   0  0  0  0  0  0  0  0  0  0  0  0
   28.9189  -22.3209    0.0000 C   0  0  0  0  0  0  0  0  0  0  0  0
   30.1121  -22.9526    0.0000 C   0  0  0  0  0  0  0  0  0  0  0  0
   31.3755  -22.2507    0.0000 S   0  0  0  0  0  0  0  0  0  0  0  0
   32.5688  -21.5488    0.0000 O   0  5  0  0  0  0  0  0  0  0  0  0
   30.6736  -21.0575    0.0000 O   0  0  0  0  0  0  0  0  0  0  0  0
   32.0774  -23.5142    0.0000 O   0  0  0  0  0  0  0  0  0  0  0  0
   28.9890  -19.9344    0.0000 C   0  0  0  0  0  0  0  0  0  0  0  0
   29.7611  -18.8114    0.0000 C   0  0  0  0  0  0  0  0  0  0  0  0
   29.1294  -17.5479    0.0000 C   0  0  0  0  0  0  0  0  0  0  0  0
   27.7256  -17.4075    0.0000 C   0  0  0  0  0  0  0  0  0  0  0  0
   24.5670  -17.8287    0.0000 C   0  0  0  0  0  0  0  0  0  0  0  0
   24.2161  -19.2325    0.0000 C   0  0  0  0  0  0  0  0  0  0  0  0
   29.9015  -16.3547    0.0000 S   0  0  0  0  0  0  0  0  0  0  0  0
   30.6034  -15.1614    0.0000 O   0  5  0  0  0  0  0  0  0  0  0  0
   28.6381  -15.6528    0.0000 O   0  0  0  0  0  0  0  0  0  0  0  0
   31.0948  -17.0566    0.0000 O   0  0  0  0  0  0  0  0  0  0  0  0
   20.4258  -18.7412    0.0000 O   0  0  0  0  0  0  0  0  0  0  0  0
   20.4258  -17.3373    0.0000 C   0  0  0  0  0  0  0  0  0  0  0  0
   21.6892  -16.6354    0.0000 C   0  0  0  0  0  0  0  0  0  0  0  0
   21.6892  -15.2316    0.0000 C   0  0  0  0  0  0  0  0  0  0  0  0
   20.4258  -14.5297    0.0000 C   0  0  0  0  0  0  0  0  0  0  0  0
   19.2325  -15.2316    0.0000 C   0  0  0  0  0  0  0  0  0  0  0  0
   19.2325  -16.6354    0.0000 C   0  0  0  0  0  0  0  0  0  0  0  0
   20.4258  -13.1259    0.0000 C   0  0  0  0  0  0  0  0  0  0  0  0
   19.2325  -12.4240    0.0000 C   0  0  0  0  0  0  0  0  0  0  0  0
   18.0393  -13.1259    0.0000 C   0  0  0  0  0  0  0  0  0  0  0  0
   19.2325  -11.0202    0.0000 N   0  0  0  0  0  0  0  0  0  0  0  0
   18.0393  -10.3183    0.0000 C   0  0  0  0  0  0  0  0  0  0  0  0
   16.8460  -10.9500    0.0000 C   0  0  0  0  0  0  0  0  0  0  0  0
   18.0393   -8.8442    0.0000 O   0  0  0  0  0  0  0  0  0  0  0  0
   15.6528  -10.3183    0.0000 C   0  0  0  0  0  0  0  0  0  0  0  0
   14.3893  -11.0202    0.0000 C   0  0  0  0  0  0  0  0  0  0  0  0
   14.3893  -12.4240    0.0000 C   0  0  0  0  0  0  0  0  0  0  0  0
   15.5826  -13.1259    0.0000 C   0  0  0  0  0  0  0  0  0  0  0  0
   16.8460  -12.4240    0.0000 C   0  0  0  0  0  0  0  0  0  0  0  0
   13.1961  -13.1259    0.0000 N   0  0  0  0  0  0  0  0  0  0  0  0
   11.9326  -12.4240    0.0000 C   0  0  0  0  0  0  0  0  0  0  0  0
   10.7394  -13.1259    0.0000 C   0  0  0  0  0  0  0  0  0  0  0  0
    9.5462  -12.4240    0.0000 N   0  0  0  0  0  0  0  0  0  0  0  0
    8.3529  -13.1259    0.0000 C   0  0  0  0  0  0  0  0  0  0  0  0
    8.3529  -14.5297    0.0000 C   0  0  0  0  0  0  0  0  0  0  0  0
    9.5462  -15.2316    0.0000 N   0  0  0  0  0  0  0  0  0  0  0  0
   10.7394  -14.5297    0.0000 C   0  0  0  0  0  0  0  0  0  0  0  0
    7.0895  -12.4240    0.0000 C   0  0  0  0  0  0  0  0  0  0  0  0
    5.8962  -13.1259    0.0000 N   0  0  0  0  0  0  0  0  0  0  0  0
    5.8962  -14.5297    0.0000 C   0  0  0  0  0  0  0  0  0  0  0  0
    7.0895  -15.2316    0.0000 N   0  0  0  0  0  0  0  0  0  0  0  0
    7.0895  -11.0202    0.0000 O   0  0  0  0  0  0  0  0  0  0  0  0
    4.7030  -15.2316    0.0000 N   0  0  0  0  0  0  0  0  0  0  0  0
   16.7758  -13.8278    0.0000 O   0  5  0  0  0  0  0  0  0  0  0  0
   18.7412  -14.3191    0.0000 O   0  0  0  0  0  0  0  0  0  0  0  0
   24.8500  -12.0400    0.0000 Na  0  3  0  0  0  0  0  0  0  0  0  0
   24.8500  -12.0400    0.0000 Na  0  3  0  0  0  0  0  0  0  0  0  0
   24.8500  -12.0400    0.0000 Na  0  3  0  0  0  0  0  0  0  0  0  0
   24.8500  -12.0400    0.0000 Na  0  3  0  0  0  0  0  0  0  0  0  0
  1  2  1  0     0  0
  2  3  1  0     0  0
  3  4  1  0     0  0
  4  5  1  0     0  0
  5  6  1  0     0  0
  1  6  2  0     0  0
  5  7  2  0     0  0
  7  8  1  0     0  0
  1  9  1  0     0  0
  9 10  2  0     0  0
 10 11  1  0     0  0
 11 12  2  0     0  0
 12 13  1  0     0  0
 14 15  1  0     0  0
 15 12  1  0     0  0
 11 16  1  0     0  0
 14 16  1  0     0  0
 13 17  1  0     0  0
 17 18  1  0     0  0
 18 19  1  0     0  0
 19 20  1  0     0  0
 20 21  1  0     0  0
 20 22  2  0     0  0
 20 23  2  0     0  0
 14 24  2  0     0  0
 24 25  1  0     0  0
 25 26  2  0     0  0
 26 27  1  0     0  0
 15 27  2  0     0  0
 25 28  1  0     0  0
 28 29  1  0     0  0
 28 30  2  0     0  0
 28 31  2  0     0  0
 16 32  1  0     0  0
 16 33  1  0     0  0
  8 34  2  0     0  0
 34 35  1  0     0  0
 36 34  1  0     0  0
 35 37  1  0     0  0
 37 38  1  0     0  0
 36 38  1  0     0  0
 35 39  1  0     0  0
 39 40  1  0     0  0
 40 41  1  0     0  0
 41 42  1  0     0  0
 42 43  1  0     0  0
 43 44  1  0     0  0
 43 45  2  0     0  0
 43 46  2  0     0  0
 37 47  2  0     0  0
 47 48  1  0     0  0
 48 49  2  0     0  0
 49 50  1  0     0  0
 38 50  2  0     0  0
 36 51  1  0     0  0
 36 52  1  0     0  0
 49 53  1  0     0  0
 53 54  1  0     0  0
 53 55  2  0     0  0
 53 56  2  0     0  0
  6 57  1  0     0  0
 57 58  1  0     0  0
 58 59  2  0     0  0
 59 60  1  0     0  0
 60 61  2  0     0  0
 61 62  1  0     0  0
 62 63  2  0     0  0
 58 63  1  0     0  0
 61 64  1  0     0  0
 64 65  1  0     0  0
 65 66  1  1     0  0
 65 67  1  0     0  0
 67 68  1  0     0  0
 68 69  1  0     0  0
 68 70  2  0     0  0
 69 71  2  0     0  0
 71 72  1  0     0  0
 72 73  2  0     0  0
 73 74  1  0     0  0
 74 75  2  0     0  0
 69 75  1  0     0  0
 73 76  1  0     0  0
 76 77  1  0     0  0
 77 78  1  0     0  0
 78 79  2  0     0  0
 79 80  1  0     0  0
 80 81  2  0     0  0
 81 82  1  0     0  0
 82 83  2  0     0  0
 78 83  1  0     0  0
 80 84  1  0     0  0
 84 85  1  0     0  0
 85 86  1  0     0  0
 86 87  2  0     0  0
 81 87  1  0     0  0
 84 88  2  0     0  0
 86 89  1  0     0  0
 66 90  1  0     0  0
 66 91  2  0     0  0
M  CHG  8  12   1  21  -1  29  -1  44  -1  54  -1  90  -1  92   1  93   1
M  CHG  2  94   1  95   1
M  STY  1   1 MUL
M  SLB  1   1   1
M  SCN  1   1 HT 
M  SAL   1  4  92  93  94  95
M  SPA   1  1  92
M  SDI   1  4   23.9400  -13.0200   23.9400  -10.8500
M  SDI   1  4   26.8800  -10.8500   26.8800  -13.0200
M  SMT   1 4
M  END
