 
 
 
 60 64  0  0  1  0  0  0  0  0999 V2000
    9.1271  -16.7705    0.0000 C   0  0  0  0  0  0  0  0  0  0  0  0
    9.1271  -18.1738    0.0000 C   0  0  0  0  0  0  0  0  0  0  0  0
   10.3200  -18.8755    0.0000 C   0  0  0  0  0  0  0  0  0  0  0  0
   11.5830  -18.1738    0.0000 C   0  0  0  0  0  0  0  0  0  0  0  0
   11.5830  -16.7705    0.0000 C   0  0  0  0  0  0  0  0  0  0  0  0
   10.3200  -16.0688    0.0000 C   0  0  0  0  0  0  0  0  0  0  0  0
   12.7759  -16.0688    0.0000 C   0  0  0  0  0  0  0  0  0  0  0  0
   13.9688  -16.7705    0.0000 N   0  0  0  0  0  0  0  0  0  0  0  0
   12.7759  -14.6654    0.0000 O   0  0  0  0  0  0  0  0  0  0  0  0
   15.1616  -16.0688    0.0000 C   0  0  0  0  0  0  0  0  0  0  0  0
   16.3545  -16.7705    0.0000 C   0  0  0  0  0  0  0  0  0  0  0  0
   15.1616  -14.6654    0.0000 C   0  0  0  0  0  0  0  0  0  0  0  0
   13.9688  -13.9637    0.0000 O   0  0  0  0  0  0  0  0  0  0  0  0
   16.3545  -13.9637    0.0000 N   0  0  0  0  0  0  0  0  0  0  0  0
   17.5474  -14.6654    0.0000 C   0  0  0  0  0  0  0  0  0  0  0  0
   18.8104  -13.9637    0.0000 C   0  0  0  0  0  0  0  0  0  0  0  0
   18.8104  -12.5603    0.0000 N   0  0  0  0  0  0  0  0  0  0  0  0
   17.6176  -11.8586    0.0000 C   0  0  0  0  0  0  0  0  0  0  0  0
   16.3545  -12.5603    0.0000 C   0  0  0  0  0  0  0  0  0  0  0  0
   20.0033  -11.8586    0.0000 C   0  0  0  0  0  0  0  0  0  0  0  0
   17.5474  -16.0688    0.0000 C   0  0  0  0  0  0  0  0  0  0  0  0
   18.7403  -16.7705    0.0000 C   0  0  0  0  0  0  0  0  0  0  0  0
   19.9331  -16.0688    0.0000 N   0  0  0  0  0  0  0  0  0  0  0  0
   21.1260  -16.7705    0.0000 C   0  0  0  0  0  0  0  0  0  0  0  0
   22.5294  -16.7705    0.0000 C   0  0  0  0  0  0  0  0  0  0  0  0
   21.8277  -17.9633    0.0000 C   0  0  0  0  0  0  0  0  0  0  0  0
   23.7924  -16.0688    0.0000 C   0  0  0  0  0  0  0  0  0  0  0  0
   24.9853  -16.7705    0.0000 C   0  0  0  0  0  0  0  0  0  0  0  0
   26.2483  -16.0688    0.0000 C   0  0  0  0  0  0  0  0  0  0  0  0
   26.2483  -14.6654    0.0000 C   0  0  0  0  0  0  0  0  0  0  0  0
   25.0555  -13.9637    0.0000 C   0  0  0  0  0  0  0  0  0  0  0  0
   23.7924  -14.6654    0.0000 C   0  0  0  0  0  0  0  0  0  0  0  0
   27.4412  -13.9637    0.0000 F   0  0  0  0  0  0  0  0  0  0  0  0
    7.8640  -18.8755    0.0000 N   0  0  0  0  0  0  0  0  0  0  0  0
    6.6009  -18.3142    0.0000 C   0  0  0  0  0  0  0  0  0  0  0  0
    5.6887  -19.3667    0.0000 C   0  0  0  0  0  0  0  0  0  0  0  0
    6.3904  -20.5596    0.0000 N   0  0  0  0  0  0  0  0  0  0  0  0
    7.7236  -20.2789    0.0000 N   0  0  0  0  0  0  0  0  0  0  0  0
   28.9801  -16.8001    0.0000 C   0  0  0  0  0  0  0  0  0  0  0  0
   28.9801  -18.2001    0.0000 C   0  0  0  0  0  0  0  0  0  0  0  0
   30.1925  -18.9001    0.0000 C   0  0  0  0  0  0  0  0  0  0  0  0
   31.4051  -18.2001    0.0000 C   0  0  0  0  0  0  0  0  0  0  0  0
   31.4051  -16.8001    0.0000 C   0  0  0  0  0  0  0  0  0  0  0  0
   30.1925  -16.1001    0.0000 C   0  0  0  0  0  0  0  0  0  0  0  0
   30.1925  -20.2999    0.0000 C   0  0  0  0  0  0  0  0  0  0  0  0
   30.1925  -14.7003    0.0000 S   0  0  0  0  0  0  0  0  0  0  0  0
   30.1925  -13.3003    0.0000 O   0  0  0  0  0  0  0  0  0  0  0  0
   28.7925  -14.7003    0.0000 O   0  0  0  0  0  0  0  0  0  0  0  0
   31.5926  -14.7003    0.0000 O   0  0  0  0  0  0  0  0  0  0  0  0
   28.9801  -16.8001    0.0000 C   0  0  0  0  0  0  0  0  0  0  0  0
   28.9801  -18.2001    0.0000 C   0  0  0  0  0  0  0  0  0  0  0  0
   30.1925  -18.9001    0.0000 C   0  0  0  0  0  0  0  0  0  0  0  0
   31.4051  -18.2001    0.0000 C   0  0  0  0  0  0  0  0  0  0  0  0
   31.4051  -16.8001    0.0000 C   0  0  0  0  0  0  0  0  0  0  0  0
   30.1925  -16.1001    0.0000 C   0  0  0  0  0  0  0  0  0  0  0  0
   30.1925  -14.7003    0.0000 S   0  0  0  0  0  0  0  0  0  0  0  0
   30.1925  -13.3003    0.0000 O   0  0  0  0  0  0  0  0  0  0  0  0
   28.7925  -14.7003    0.0000 O   0  0  0  0  0  0  0  0  0  0  0  0
   31.5926  -14.7003    0.0000 O   0  0  0  0  0  0  0  0  0  0  0  0
   30.1925  -20.2999    0.0000 C   0  0  0  0  0  0  0  0  0  0  0  0
  1  2  2  0     0  0
  2  3  1  0     0  0
  3  4  2  0     0  0
  4  5  1  0     0  0
  5  6  2  0     0  0
  1  6  1  0     0  0
  5  7  1  0     0  0
  7  8  1  0     0  0
  7  9  2  0     0  0
  8 10  1  0     0  0
 10 11  1  0     0  0
 10 12  1  6     0  0
 12 13  2  0     0  0
 12 14  1  0     0  0
 14 15  1  0     0  0
 15 16  1  0     0  0
 16 17  1  0     0  0
 17 18  1  0     0  0
 18 19  1  0     0  0
 14 19  1  0     0  0
 17 20  1  0     0  0
 11 21  1  0     0  0
 21 22  1  0     0  0
 22 23  1  0     0  0
 24 23  1  1     0  0
 24 25  1  0     0  0
 25 26  1  0     0  0
 26 24  1  0     0  0
 25 27  1  6     0  0
 27 28  2  0     0  0
 28 29  1  0     0  0
 29 30  2  0     0  0
 30 31  1  0     0  0
 31 32  2  0     0  0
 27 32  1  0     0  0
 30 33  1  0     0  0
  2 34  1  0     0  0
 34 35  1  0     0  0
 35 36  2  0     0  0
 36 37  1  0     0  0
 37 38  2  0     0  0
 34 38  1  0     0  0
 39 40  2  0     0  0
 40 41  1  0     0  0
 41 42  2  0     0  0
 42 43  1  0     0  0
 43 44  2  0     0  0
 39 44  1  0     0  0
 41 45  1  0     0  0
 44 46  1  0     0  0
 46 47  1  0     0  0
 46 48  2  0     0  0
 46 49  2  0     0  0
 50 51  2  0     0  0
 51 52  1  0     0  0
 52 53  2  0     0  0
 53 54  1  0     0  0
 54 55  2  0     0  0
 50 55  1  0     0  0
 52 60  1  0     0  0
 55 56  1  0     0  0
 56 57  1  0     0  0
 56 58  2  0     0  0
 56 59  2  0     0  0
M  STY  1   1 MUL
M  SLB  1   1   1
M  SCN  1   1 HT 
M  SAL   1 15  39  40  41  42  43  44  45  46  47  48  49  50  51  52  53
M  SAL   1  7  54  55  56  57  58  59  60
M  SPA   1 11  39  40  41  42  43  44  46  47  48  49  45
M  SDI   1  4   28.3500  -21.2800   28.3500  -12.7400
M  SDI   1  4   32.4800  -12.7400   32.4800  -21.2800
M  SMT   1 2
M  END
