 
 
 
 32 35  0  0  0  0  0  0  0  0999 V2000
   13.8139  -15.7167    0.0000 N   0  0  0  0  0  0  0  0  0  0  0  0
   13.8139  -17.1198    0.0000 C   0  0  0  0  0  0  0  0  0  0  0  0
   15.0290  -17.8213    0.0000 C   0  0  0  0  0  0  0  0  0  0  0  0
   16.2441  -17.1198    0.0000 C   0  0  0  0  0  0  0  0  0  0  0  0
   16.2441  -15.7167    0.0000 C   0  0  0  0  0  0  0  0  0  0  0  0
   15.0290  -15.0152    0.0000 C   0  0  0  0  0  0  0  0  0  0  0  0
   17.4779  -17.8323    0.0000 O   0  0  0  0  0  0  0  0  0  0  0  0
   18.6857  -17.1351    0.0000 C   0  0  0  0  0  0  0  0  0  0  0  0
   19.8706  -17.8194    0.0000 C   0  0  0  0  0  0  0  0  0  0  0  0
   21.0857  -17.1181    0.0000 C   0  0  0  0  0  0  0  0  0  0  0  0
   21.0859  -15.7150    0.0000 C   0  0  0  0  0  0  0  0  0  0  0  0
   19.9010  -15.0308    0.0000 N   0  0  0  0  0  0  0  0  0  0  0  0
   18.6858  -15.7321    0.0000 C   0  0  0  0  0  0  0  0  0  0  0  0
   22.3180  -15.0036    0.0000 C   0  0  0  0  0  0  0  0  0  0  0  0
   23.5263  -15.7012    0.0000 C   0  0  0  0  0  0  0  0  0  0  0  0
   24.7414  -14.9997    0.0000 N   0  0  0  0  0  0  0  0  0  0  0  0
   24.7415  -13.5966    0.0000 C   0  0  0  0  0  0  0  0  0  0  0  0
   23.5333  -12.8990    0.0000 N   0  0  0  0  0  0  0  0  0  0  0  0
   22.3181  -13.6005    0.0000 C   0  0  0  0  0  0  0  0  0  0  0  0
   23.5265  -17.1194    0.0000 O   0  0  0  0  0  0  0  0  0  0  0  0
   25.9564  -15.7013    0.0000 C   0  0  0  0  0  0  0  0  0  0  0  0
   27.1716  -14.9998    0.0000 C   0  0  0  0  0  0  0  0  0  0  0  0
   27.1716  -13.5967    0.0000 C   0  0  0  0  0  0  0  0  0  0  0  0
   25.9565  -12.8952    0.0000 N   0  0  0  0  0  0  0  0  0  0  0  0
   28.3585  -12.9115    0.0000 C   0  0  0  0  0  0  0  0  0  0  0  0
   17.4407  -15.0130    0.0000 C   0  0  0  0  0  0  0  0  0  0  0  0
   12.5989  -17.8213    0.0000 C   0  0  0  0  0  0  0  0  0  0  0  0
   11.3360  -17.2589    0.0000 C   0  0  0  0  0  0  0  0  0  0  0  0
   10.4108  -18.2862    0.0000 N   0  0  0  0  0  0  0  0  0  0  0  0
   11.1019  -19.4835    0.0000 N   0  0  0  0  0  0  0  0  0  0  0  0
   12.4542  -19.1962    0.0000 C   0  0  0  0  0  0  0  0  0  0  0  0
    8.9846  -18.1355    0.0000 C   0  0  0  0  0  0  0  0  0  0  0  0
  1  2  2  0     0  0
  2  3  1  0     0  0
  3  4  2  0     0  0
  4  5  1  0     0  0
  5  6  2  0     0  0
  1  6  1  0     0  0
  4  7  1  0     0  0
  7  8  1  0     0  0
  8  9  2  0     0  0
  9 10  1  0     0  0
 10 11  2  0     0  0
 11 12  1  0     0  0
 12 13  2  0     0  0
  8 13  1  0     0  0
 11 14  1  0     0  0
 14 15  1  0     0  0
 15 16  1  0     0  0
 16 17  1  0     0  0
 17 18  2  0     0  0
 18 19  1  0     0  0
 14 19  2  0     0  0
 15 20  2  0     0  0
 16 21  1  0     0  0
 22 23  1  0     0  0
 23 24  1  0     0  0
 17 24  1  0     0  0
 23 25  1  0     0  0
 13 26  1  0     0  0
  2 27  1  0     0  0
 27 28  2  0     0  0
 28 29  1  0     0  0
 29 30  1  0     0  0
 30 31  2  0     0  0
 27 31  1  0     0  0
 29 32  1  0     0  0
M  END
