 
 
 
 29 33  0  0  1  0  0  0  0  0999 V2000
   14.2800  -15.9600    0.0000 N   0  0  0  0  0  0  0  0  0  0  0  0
   14.2800  -17.3600    0.0000 C   0  0  0  0  0  0  0  0  0  0  0  0
   15.4700  -18.0600    0.0000 C   0  0  0  0  0  0  0  0  0  0  0  0
   16.7300  -17.3600    0.0000 N   0  0  0  0  0  0  0  0  0  0  0  0
   16.7300  -15.9600    0.0000 C   0  0  0  0  0  0  0  0  0  0  0  0
   15.4700  -15.2600    0.0000 C   0  0  0  0  0  0  0  0  0  0  0  0
   15.4700  -19.4600    0.0000 O   0  0  0  0  0  0  0  0  0  0  0  0
   12.9500  -15.5400    0.0000 C   0  0  0  0  0  0  0  0  0  0  0  0
   12.1100  -16.6600    0.0000 N   0  0  0  0  0  0  0  0  0  0  0  0
   12.9500  -17.7800    0.0000 C   0  0  0  0  0  0  0  0  0  0  0  0
   12.5300  -14.2100    0.0000 C   0  0  0  0  0  0  0  0  0  0  0  0
   13.5100  -13.1600    0.0000 C   0  0  0  0  0  0  0  0  0  0  0  0
   13.0200  -11.8300    0.0000 C   0  0  0  0  0  0  0  0  0  0  0  0
   11.6900  -11.5500    0.0000 O   0  0  0  0  0  0  0  0  0  0  0  0
   10.7100  -12.6000    0.0000 C   0  0  0  0  0  0  0  0  0  0  0  0
   11.1300  -13.9300    0.0000 C   0  0  0  0  0  0  0  0  0  0  0  0
   17.9200  -15.2600    0.0000 C   0  0  0  0  0  0  0  0  0  0  0  0
   19.2500  -15.6800    0.0000 C   0  0  0  0  0  0  0  0  0  0  0  0
   20.0900  -14.5600    0.0000 N   0  0  0  0  0  0  0  0  0  0  0  0
   19.2500  -13.4400    0.0000 C   0  0  0  0  0  0  0  0  0  0  0  0
   17.9200  -13.8600    0.0000 C   0  0  0  0  0  0  0  0  0  0  0  0
   21.4900  -14.5600    0.0000 C   0  0  0  0  0  0  0  0  0  0  0  0
   22.1900  -13.3700    0.0000 C   0  0  0  0  0  0  0  0  0  0  0  0
   23.5900  -13.3700    0.0000 N   0  0  0  0  0  0  0  0  0  0  0  0
   24.2900  -12.1100    0.0000 C   0  0  0  0  0  0  0  0  0  0  0  0
   23.5900  -10.9200    0.0000 C   0  0  0  0  0  0  0  0  0  0  0  0
   22.1900  -10.9200    0.0000 C   0  0  0  0  0  0  0  0  0  0  0  0
   21.4900  -12.1100    0.0000 N   0  0  0  0  0  0  0  0  0  0  0  0
   16.8000  -13.0200    0.0000 C   0  0  0  0  0  0  0  0  0  0  0  0
  1  2  1  0     0  0
  2  3  1  0     0  0
  3  4  1  0     0  0
  4  5  1  0     0  0
  5  6  2  0     0  0
  1  6  1  0     0  0
  3  7  2  0     0  0
  1  8  1  0     0  0
  8  9  2  0     0  0
  2 10  2  0     0  0
 11  8  1  0     0  0
 11 12  1  0     0  0
 12 13  1  0     0  0
 13 14  1  0     0  0
 14 15  1  0     0  0
 15 16  1  0     0  0
 11 16  1  0     0  0
  9 10  1  0     0  0
 17  5  1  1     0  0
 17 18  1  0     0  0
 18 19  1  0     0  0
 19 20  1  0     0  0
 20 21  1  0     0  0
 17 21  1  0     0  0
 19 22  1  0     0  0
 22 23  1  0     0  0
 23 24  2  0     0  0
 24 25  1  0     0  0
 25 26  2  0     0  0
 26 27  1  0     0  0
 27 28  2  0     0  0
 23 28  1  0     0  0
 21 29  1  6     0  0
M  END
