 
 
 
 57 63  0  0  1  0  0  0  0  0999 V2000
   35.4306  -21.6403    0.0000 C   0  0  0  0  0  0  0  0  0  0  0  0
   35.8509  -23.0412    0.0000 C   0  0  0  0  0  0  0  0  0  0  0  0
   34.0297  -21.3601    0.0000 C   0  0  0  0  0  0  0  0  0  0  0  0
   33.1192  -22.3408    0.0000 C   0  0  0  0  0  0  0  0  0  0  0  0
   33.4694  -23.6716    0.0000 C   0  0  0  0  0  0  0  0  0  0  0  0
   34.8703  -24.0218    0.0000 C   0  0  0  0  0  0  0  0  0  0  0  0
   29.9671  -20.5897    0.0000 N   0  0  0  0  0  0  0  0  0  0  0  0
   29.5469  -21.9205    0.0000 C   0  0  0  0  0  0  0  0  0  0  0  0
   30.6676  -22.7610    0.0000 N   0  0  0  0  0  0  0  0  0  0  0  0
   31.7883  -21.9205    0.0000 C   0  0  0  0  0  0  0  0  0  0  0  0
   31.3680  -20.5897    0.0000 C   0  0  0  0  0  0  0  0  0  0  0  0
   28.2160  -22.3408    0.0000 C   0  0  0  0  0  0  0  0  0  0  0  0
   26.8852  -21.8505    0.0000 C   0  0  0  0  0  0  0  0  0  0  0  0
   26.0446  -22.9712    0.0000 C   0  0  0  0  0  0  0  0  0  0  0  0
   26.8852  -24.1619    0.0000 C   0  0  0  0  0  0  0  0  0  0  0  0
   28.2160  -23.7417    0.0000 N   0  0  0  0  0  0  0  0  0  0  0  0
   29.3367  -24.5822    0.0000 C   0  0  0  0  0  0  0  0  0  0  0  0
   30.5976  -24.0218    0.0000 O   0  0  0  0  0  0  0  0  0  0  0  0
   29.3367  -25.9831    0.0000 C   0  0  0  0  0  0  0  0  0  0  0  0
   28.1460  -26.6835    0.0000 C   0  0  0  0  0  0  0  0  0  0  0  0
   26.9552  -25.9831    0.0000 C   0  0  0  0  0  0  0  0  0  0  0  0
   28.1460  -28.0844    0.0000 C   0  0  0  0  0  0  0  0  0  0  0  0
   30.5275  -26.6835    0.0000 N   0  0  0  0  0  0  0  0  0  0  0  0
   31.7883  -25.9831    0.0000 C   0  0  0  0  0  0  0  0  0  0  0  0
   32.9791  -26.7536    0.0000 O   0  0  0  0  0  0  0  0  0  0  0  0
   31.7883  -24.5822    0.0000 O   0  0  0  0  0  0  0  0  0  0  0  0
   32.9495  -28.1398    0.0000 C   0  0  0  0  0  0  0  0  0  0  0  0
   32.7034  -24.8957    0.0000 O   0  0  0  0  0  0  0  0  0  0  0  0
   33.6309  -26.0025    0.0000 C   0  0  0  0  0  0  0  0  0  0  0  0
   34.9701  -25.4624    0.0000 O   0  0  0  0  0  0  0  0  0  0  0  0
   37.1955  -23.3801    0.0000 C   0  0  0  0  0  0  0  0  0  0  0  0
   37.5758  -24.7199    0.0000 C   0  0  0  0  0  0  0  0  0  0  0  0
   38.9333  -25.0622    0.0000 C   0  0  0  0  0  0  0  0  0  0  0  0
   39.9085  -24.0577    0.0000 C   0  0  0  0  0  0  0  0  0  0  0  0
   39.5282  -22.7180    0.0000 C   0  0  0  0  0  0  0  0  0  0  0  0
   38.1707  -22.3756    0.0000 C   0  0  0  0  0  0  0  0  0  0  0  0
   41.2642  -24.4006    0.0000 C   0  0  0  0  0  0  0  0  0  0  0  0
   41.7106  -25.7449    0.0000 N   0  0  0  0  0  0  0  0  0  0  0  0
   43.1245  -25.7368    0.0000 C   0  0  0  0  0  0  0  0  0  0  0  0
   43.5537  -24.3895    0.0000 N   0  0  0  0  0  0  0  0  0  0  0  0
   42.4051  -23.5650    0.0000 C   0  0  0  0  0  0  0  0  0  0  0  0
   43.9635  -26.8773    0.0000 C   0  0  0  0  0  0  0  0  0  0  0  0
   43.5377  -28.2148    0.0000 C   0  0  0  0  0  0  0  0  0  0  0  0
   44.6781  -29.0331    0.0000 C   0  0  0  0  0  0  0  0  0  0  0  0
   45.8087  -28.2014    0.0000 C   0  0  0  0  0  0  0  0  0  0  0  0
   45.3671  -26.8691    0.0000 N   0  0  0  0  0  0  0  0  0  0  0  0
   46.1757  -25.7422    0.0000 C   0  0  0  0  0  0  0  0  0  0  0  0
   47.5946  -25.7426    0.0000 C   0  0  0  0  0  0  0  0  0  0  0  0
   45.5492  -24.5205    0.0000 O   0  0  0  0  0  0  0  0  0  0  0  0
   48.2888  -24.5412    0.0000 N   0  0  0  0  0  0  0  0  0  0  0  0
   48.3032  -26.9706    0.0000 C   0  0  0  0  0  0  0  0  0  0  0  0
   49.6998  -26.9709    0.0000 C   0  0  0  0  0  0  0  0  0  0  0  0
   47.6109  -28.1687    0.0000 C   0  0  0  0  0  0  0  0  0  0  0  0
   49.6997  -24.5415    0.0000 C   0  0  0  0  0  0  0  0  0  0  0  0
   50.3878  -23.3506    0.0000 O   0  0  0  0  0  0  0  0  0  0  0  0
   50.4120  -25.7754    0.0000 O   0  0  0  0  0  0  0  0  0  0  0  0
   51.7999  -25.7755    0.0000 C   0  0  0  0  0  0  0  0  0  0  0  0
  1  2  1  0     0  0
  1  3  2  0     0  0
  3  4  1  0     0  0
  4  5  2  0     0  0
  5  6  1  0     0  0
  2  6  2  0     0  0
  7  8  1  0     0  0
  8  9  2  0     0  0
  9 10  1  0     0  0
 10 11  2  0     0  0
  7 11  1  0     0  0
 10  4  1  0     0  0
 12  8  1  1     0  0
 12 13  1  0     0  0
 13 14  1  0     0  0
 14 15  1  0     0  0
 15 16  1  0     0  0
 12 16  1  0     0  0
 16 17  1  0     0  0
 17 18  2  0     0  0
 19 17  1  0     0  0
 19 20  1  1     0  0
 20 21  1  0     0  0
 20 22  1  0     0  0
 19 23  1  0     0  0
 23 24  1  0     0  0
 24 25  1  0     0  0
 24 26  2  0     0  0
 25 27  1  0     0  0
  5 28  1  0     0  0
 28 29  1  0     0  0
 29 30  1  0     0  0
  6 30  1  0     0  0
  2 31  1  0     0  0
 31 32  2  0     0  0
 32 33  1  0     0  0
 33 34  2  0     0  0
 34 35  1  0     0  0
 35 36  2  0     0  0
 31 36  1  0     0  0
 34 37  1  0     0  0
 37 38  1  0     0  0
 38 39  1  0     0  0
 39 40  2  0     0  0
 40 41  1  0     0  0
 37 41  2  0     0  0
 42 39  1  1     0  0
 42 43  1  0     0  0
 43 44  1  0     0  0
 44 45  1  0     0  0
 45 46  1  0     0  0
 42 46  1  0     0  0
 46 47  1  0     0  0
 47 48  1  0     0  0
 47 49  2  0     0  0
 48 50  1  1     0  0
 48 51  1  0     0  0
 51 52  1  0     0  0
 51 53  1  0     0  0
 50 54  1  0     0  0
 54 55  2  0     0  0
 54 56  1  0     0  0
 56 57  1  0     0  0
M  END
