 
 
 
 33 33  0  0  0  0  0  0  0  0999 V2000
   12.5648  -16.6365    0.0000 C   0  0  0  0  0  0  0  0  0  0  0  0
   13.7581  -17.3384    0.0000 C   0  0  0  0  0  0  0  0  0  0  0  0
   14.9514  -16.6365    0.0000 C   0  0  0  0  0  0  0  0  0  0  0  0
   16.1447  -17.3384    0.0000 N   0  0  0  0  0  0  0  0  0  0  0  0
   17.3381  -16.6365    0.0000 C   0  0  0  0  0  0  0  0  0  0  0  0
   18.6016  -17.3384    0.0000 C   0  0  0  0  0  0  0  0  0  0  0  0
   19.7949  -16.6365    0.0000 C   0  0  0  0  0  0  0  0  0  0  0  0
   20.9882  -17.4086    0.0000 N   0  0  0  0  0  0  0  0  0  0  0  0
   22.0411  -16.5663    0.0000 C   0  0  0  0  0  0  0  0  0  0  0  0
   21.5498  -15.3028    0.0000 C   0  0  0  0  0  0  0  0  0  0  0  0
   20.2161  -15.3028    0.0000 O   0  0  0  0  0  0  0  0  0  0  0  0
   23.2345  -17.2683    0.0000 C   0  0  0  0  0  0  0  0  0  0  0  0
   24.4278  -16.5663    0.0000 N   0  0  0  0  0  0  0  0  0  0  0  0
   23.2345  -18.6722    0.0000 O   0  0  0  0  0  0  0  0  0  0  0  0
   25.6913  -17.2683    0.0000 C   0  0  0  0  0  0  0  0  0  0  0  0
   26.8846  -16.5663    0.0000 C   0  0  0  0  0  0  0  0  0  0  0  0
   28.0779  -17.2683    0.0000 N   0  0  0  0  0  0  0  0  0  0  0  0
   29.2713  -16.4961    0.0000 C   0  0  0  0  0  0  0  0  0  0  0  0
   29.2713  -15.0922    0.0000 C   0  0  0  0  0  0  0  0  0  0  0  0
   28.0779  -14.3902    0.0000 C   0  0  0  0  0  0  0  0  0  0  0  0
   26.8846  -15.1624    0.0000 C   0  0  0  0  0  0  0  0  0  0  0  0
   25.6211  -14.4604    0.0000 F   0  0  0  0  0  0  0  0  0  0  0  0
   12.4244  -15.2326    0.0000 N   0  0  0  0  0  0  0  0  0  0  0  0
   11.0205  -14.8816    0.0000 C   0  0  0  0  0  0  0  0  0  0  0  0
   10.3185  -16.1451    0.0000 C   0  0  0  0  0  0  0  0  0  0  0  0
   11.2311  -17.1981    0.0000 N   0  0  0  0  0  0  0  0  0  0  0  0
   10.3185  -13.6883    0.0000 C   0  0  0  0  0  0  0  0  0  0  0  0
    8.9146  -13.6883    0.0000 C   0  0  0  0  0  0  0  0  0  0  0  0
    8.2127  -14.8816    0.0000 C   0  0  0  0  0  0  0  0  0  0  0  0
    8.9146  -16.1449    0.0000 C   0  0  0  0  0  0  0  0  0  0  0  0
   16.3100  -12.8100    0.0000 Cl  0  0  0  0  0  0  0  0  0  0  0  0
   16.3100  -12.8100    0.0000 Cl  0  0  0  0  0  0  0  0  0  0  0  0
   16.3100  -12.8100    0.0000 Cl  0  0  0  0  0  0  0  0  0  0  0  0
  1  2  1  0     0  0
  2  3  1  0     0  0
  3  4  1  0     0  0
  4  5  1  0     0  0
  5  6  1  0     0  0
  6  7  1  0     0  0
  7  8  2  0     0  0
  8  9  1  0     0  0
  9 10  2  0     0  0
 10 11  1  0     0  0
  7 11  1  0     0  0
  9 12  1  0     0  0
 12 13  1  0     0  0
 12 14  2  0     0  0
 13 15  1  0     0  0
 15 16  1  0     0  0
 16 17  2  0     0  0
 17 18  1  0     0  0
 18 19  2  0     0  0
 19 20  1  0     0  0
 20 21  2  0     0  0
 16 21  1  0     0  0
 21 22  1  0     0  0
  1 23  2  0     0  0
 23 24  1  0     0  0
 24 25  1  0     0  0
 25 26  1  0     0  0
  1 26  1  0     0  0
 24 27  2  0     0  0
 27 28  1  0     0  0
 28 29  2  0     0  0
 29 30  1  0     0  0
 25 30  2  0     0  0
M  STY  1   1 MUL
M  SLB  1   1   1
M  SCN  1   1 HT 
M  SAL   1  3  31  32  33
M  SPA   1  1  31
M  SDI   1  4   14.7700  -13.7200   14.7700  -11.8300
M  SDI   1  4   17.4300  -11.8300   17.4300  -13.7200
M  SMT   1 3
M  END
