 
 
 
 47 52  0  0  1  0  0  0  0  0999 V2000
    9.7300  -13.3700    0.0000 C   0  0  0  0  0  0  0  0  0  0  0  0
    9.7300  -14.7700    0.0000 C   0  0  0  0  0  0  0  0  0  0  0  0
   10.9424  -15.4700    0.0000 C   0  0  0  0  0  0  0  0  0  0  0  0
   12.1549  -14.7700    0.0000 O   0  0  0  0  0  0  0  0  0  0  0  0
   12.1549  -13.3700    0.0000 C   0  0  0  0  0  0  0  0  0  0  0  0
   10.9424  -12.6700    0.0000 C   0  0  0  0  0  0  0  0  0  0  0  0
   13.3860  -12.6590    0.0000 S   0  0  0  0  0  0  0  0  0  0  0  0
   14.5912  -13.3547    0.0000 C   0  0  0  0  0  0  0  0  0  0  0  0
   14.5916  -14.7696    0.0000 O   0  0  0  0  0  0  0  0  0  0  0  0
   15.8042  -15.4693    0.0000 C   0  0  0  0  0  0  0  0  0  0  0  0
   17.0165  -14.7689    0.0000 C   0  0  0  0  0  0  0  0  0  0  0  0
   17.0160  -13.3539    0.0000 C   0  0  0  0  0  0  0  0  0  0  0  0
   15.8034  -12.6543    0.0000 C   0  0  0  0  0  0  0  0  0  0  0  0
   10.9424  -16.8698    0.0000 C   0  0  0  0  0  0  0  0  0  0  0  0
    9.7132  -17.5797    0.0000 O   0  0  0  0  0  0  0  0  0  0  0  0
   15.8046  -16.8699    0.0000 C   0  0  0  0  0  0  0  0  0  0  0  0
   17.0288  -17.5763    0.0000 O   0  0  0  0  0  0  0  0  0  0  0  0
   18.2247  -15.4660    0.0000 O   0  0  0  0  0  0  0  0  0  0  0  0
    8.5176  -15.4700    0.0000 O   0  0  0  0  0  0  0  0  0  0  0  0
   18.2168  -12.6603    0.0000 N   0  0  0  0  0  0  0  0  0  0  0  0
   15.8032  -11.2701    0.0000 O   0  0  0  0  0  0  0  0  0  0  0  0
   10.9424  -11.2702    0.0000 O   0  0  0  0  0  0  0  0  0  0  0  0
    8.5176  -12.6700    0.0000 N   0  0  0  0  0  0  0  0  0  0  0  0
    8.3715  -11.2802    0.0000 N   0  0  0  0  0  0  0  0  0  0  0  0
    7.0046  -10.9896    0.0000 N   0  0  0  0  0  0  0  0  0  0  0  0
    6.3058  -12.1998    0.0000 C   0  0  0  0  0  0  0  0  0  0  0  0
    7.2409  -13.2384    0.0000 C   0  0  0  0  0  0  0  0  0  0  0  0
    4.9099  -12.3465    0.0000 C   0  0  0  0  0  0  0  0  0  0  0  0
    4.0709  -11.1919    0.0000 C   0  0  0  0  0  0  0  0  0  0  0  0
    2.6786  -11.3384    0.0000 C   0  0  0  0  0  0  0  0  0  0  0  0
    2.1093  -12.6175    0.0000 C   0  0  0  0  0  0  0  0  0  0  0  0
    2.9483  -13.7721    0.0000 C   0  0  0  0  0  0  0  0  0  0  0  0
    4.3407  -13.6256    0.0000 C   0  0  0  0  0  0  0  0  0  0  0  0
    1.8500  -10.1981    0.0000 F   0  0  0  0  0  0  0  0  0  0  0  0
   19.4853  -13.2249    0.0000 C   0  0  0  0  0  0  0  0  0  0  0  0
   20.4143  -12.1929    0.0000 C   0  0  0  0  0  0  0  0  0  0  0  0
   19.7199  -10.9905    0.0000 N   0  0  0  0  0  0  0  0  0  0  0  0
   18.3617  -11.2794    0.0000 N   0  0  0  0  0  0  0  0  0  0  0  0
   21.8306  -12.3418    0.0000 C   0  0  0  0  0  0  0  0  0  0  0  0
   22.3936  -13.6059    0.0000 C   0  0  0  0  0  0  0  0  0  0  0  0
   23.7859  -13.7521    0.0000 C   0  0  0  0  0  0  0  0  0  0  0  0
   24.6087  -12.6194    0.0000 C   0  0  0  0  0  0  0  0  0  0  0  0
   24.0458  -11.3554    0.0000 C   0  0  0  0  0  0  0  0  0  0  0  0
   22.6534  -11.2091    0.0000 C   0  0  0  0  0  0  0  0  0  0  0  0
   24.8873  -10.1962    0.0000 F   0  0  0  0  0  0  0  0  0  0  0  0
   17.0160  -11.9539    0.0000 H   0  0  0  0  0  0  0  0  0  0  0  0
    9.7300  -11.9700    0.0000 H   0  0  0  0  0  0  0  0  0  0  0  0
  1  2  1  0     0  0
  2  3  1  0     0  0
  3  4  1  0     0  0
  4  5  1  0     0  0
  5  6  1  0     0  0
  1  6  1  0     0  0
  5  7  1  6     0  0
  8  7  1  1     0  0
  8  9  1  0     0  0
  9 10  1  0     0  0
 10 11  1  0     0  0
 11 12  1  0     0  0
 12 13  1  0     0  0
  8 13  1  0     0  0
  3 14  1  6     0  0
 14 15  1  0     0  0
 10 16  1  1     0  0
 16 17  1  0     0  0
 11 18  1  1     0  0
  2 19  1  6     0  0
 12 20  1  0     0  0
 13 21  1  6     0  0
  6 22  1  1     0  0
  1 23  1  0     0  0
 23 24  1  0     0  0
 24 25  2  0     0  0
 25 26  1  0     0  0
 26 27  2  0     0  0
 23 27  1  0     0  0
 26 28  1  0     0  0
 28 29  2  0     0  0
 29 30  1  0     0  0
 30 31  2  0     0  0
 31 32  1  0     0  0
 32 33  2  0     0  0
 28 33  1  0     0  0
 30 34  1  0     0  0
 20 35  1  0     0  0
 35 36  2  0     0  0
 36 37  1  0     0  0
 37 38  2  0     0  0
 20 38  1  0     0  0
 36 39  1  0     0  0
 39 40  2  0     0  0
 40 41  1  0     0  0
 41 42  2  0     0  0
 42 43  1  0     0  0
 43 44  2  0     0  0
 39 44  1  0     0  0
 43 45  1  0     0  0
 12 46  1  6     0  0
  1 47  1  1     0  0
M  END
