 
 
 
 40 43  0  0  1  0  0  0  0  0999 V2000
    9.2400  -17.0100    0.0000 C   0  0  0  0  0  0  0  0  0  0  0  0
   10.4300  -17.7100    0.0000 C   0  0  0  0  0  0  0  0  0  0  0  0
   11.6200  -17.0100    0.0000 O   0  0  0  0  0  0  0  0  0  0  0  0
   12.8100  -17.7100    0.0000 C   0  0  0  0  0  0  0  0  0  0  0  0
   14.0000  -17.0100    0.0000 C   0  0  0  0  0  0  0  0  0  0  0  0
   15.1900  -17.7100    0.0000 N   0  0  0  0  0  0  0  0  0  0  0  0
   10.4300  -19.0400    0.0000 C   0  0  0  0  0  0  0  0  0  0  0  0
   12.8100  -19.0400    0.0000 O   0  0  0  0  0  0  0  0  0  0  0  0
   14.0000  -15.6100    0.0000 C   0  0  0  0  0  0  0  0  0  0  0  0
   20.7200  -17.5700    0.0000 C   0  0  0  0  0  0  0  0  0  0  0  0
   21.2100  -18.9000    0.0000 C   0  0  0  0  0  0  0  0  0  0  0  0
   22.6100  -18.9000    0.0000 C   0  0  0  0  0  0  0  0  0  0  0  0
   22.9600  -17.5000    0.0000 C   0  0  0  0  0  0  0  0  0  0  0  0
   21.8400  -16.6600    0.0000 O   0  0  0  0  0  0  0  0  0  0  0  0
   16.9400  -17.0100    0.0000 P   0  0  0  0  0  0  0  0  0  0  0  0
   15.7500  -16.3100    0.0000 O   0  0  0  0  0  0  0  0  0  0  0  0
   18.1300  -16.3100    0.0000 O   0  0  0  0  0  0  0  0  0  0  0  0
   18.1300  -14.9100    0.0000 C   0  0  0  0  0  0  0  0  0  0  0  0
   19.3200  -14.2100    0.0000 C   0  0  0  0  0  0  0  0  0  0  0  0
   19.3200  -12.8800    0.0000 C   0  0  0  0  0  0  0  0  0  0  0  0
   18.1300  -12.1800    0.0000 C   0  0  0  0  0  0  0  0  0  0  0  0
   16.9400  -12.8800    0.0000 C   0  0  0  0  0  0  0  0  0  0  0  0
   16.9400  -14.2100    0.0000 C   0  0  0  0  0  0  0  0  0  0  0  0
   18.3400  -17.7100    0.0000 O   0  0  0  0  0  0  0  0  0  0  0  0
   19.5300  -16.9400    0.0000 C   0  0  0  0  0  0  0  0  0  0  0  0
   20.4400  -20.0200    0.0000 O   0  0  0  0  0  0  0  0  0  0  0  0
   23.9400  -19.3900    0.0000 C   0  0  0  0  0  0  0  0  0  0  0  0
   22.3300  -20.0900    0.0000 F   0  0  0  0  0  0  0  0  0  0  0  0
   24.0800  -15.2600    0.0000 C   0  0  0  0  0  0  0  0  0  0  0  0
   24.0800  -16.6600    0.0000 N   0  0  0  0  0  0  0  0  0  0  0  0
   25.4100  -17.0800    0.0000 C   0  0  0  0  0  0  0  0  0  0  0  0
   26.2500  -15.9600    0.0000 N   0  0  0  0  0  0  0  0  0  0  0  0
   25.4100  -14.8400    0.0000 C   0  0  0  0  0  0  0  0  0  0  0  0
   25.6900  -13.4400    0.0000 C   0  0  0  0  0  0  0  0  0  0  0  0
   24.6400  -12.5300    0.0000 N   0  0  0  0  0  0  0  0  0  0  0  0
   23.3100  -12.9500    0.0000 C   0  0  0  0  0  0  0  0  0  0  0  0
   23.0300  -14.3500    0.0000 N   0  0  0  0  0  0  0  0  0  0  0  0
   27.0200  -13.0200    0.0000 N   0  0  0  0  0  0  0  0  0  0  0  0
   28.0700  -13.9300    0.0000 C   0  0  0  0  0  0  0  0  0  0  0  0
   22.2600  -12.0400    0.0000 N   0  0  0  0  0  0  0  0  0  0  0  0
  1  2  1  0     0  0
  2  3  1  0     0  0
  3  4  1  0     0  0
  4  5  1  0     0  0
  5  6  1  0     0  0
  2  7  1  0     0  0
  4  8  2  0     0  0
  5  9  1  6     0  0
 10 11  1  0     0  0
 11 12  1  0     0  0
 12 13  1  0     0  0
 13 14  1  0     0  0
 10 14  1  0     0  0
 15 16  2  0     0  0
 15 17  1  0     0  0
 17 18  1  0     0  0
 18 19  2  0     0  0
 19 20  1  0     0  0
 20 21  2  0     0  0
 21 22  1  0     0  0
 22 23  2  0     0  0
 18 23  1  0     0  0
 15 24  1  6     0  0
 24 25  1  0     0  0
 10 25  1  1     0  0
 11 26  1  6     0  0
 12 27  1  1     0  0
 12 28  1  6     0  0
 15  6  1  1     0  0
 29 30  1  0     0  0
 30 31  1  0     0  0
 31 32  2  0     0  0
 32 33  1  0     0  0
 29 33  1  0     0  0
 13 30  1  1     0  0
 33 34  2  0     0  0
 34 35  1  0     0  0
 35 36  2  0     0  0
 36 37  1  0     0  0
 29 37  2  0     0  0
 34 38  1  0     0  0
 38 39  1  0     0  0
 36 40  1  0     0  0
M  END
