 
 
 
 36 39  0  0  0  0  0  0  0  0999 V2000
   12.7400  -13.3000    0.0000 C   0  0  0  0  0  0  0  0  0  0  0  0
   12.7400  -14.7000    0.0000 N   0  0  0  0  0  0  0  0  0  0  0  0
   13.9524  -15.4000    0.0000 C   0  0  0  0  0  0  0  0  0  0  0  0
   15.1649  -14.7000    0.0000 C   0  0  0  0  0  0  0  0  0  0  0  0
   15.1649  -13.3000    0.0000 C   0  0  0  0  0  0  0  0  0  0  0  0
   13.9524  -12.6000    0.0000 N   0  0  0  0  0  0  0  0  0  0  0  0
   11.5276  -12.6000    0.0000 C   0  0  0  0  0  0  0  0  0  0  0  0
   10.3151  -11.9000    0.0000 O   0  0  0  0  0  0  0  0  0  0  0  0
   12.2276  -11.3876    0.0000 C   0  0  0  0  0  0  0  0  0  0  0  0
   10.8276  -13.8124    0.0000 C   0  0  0  0  0  0  0  0  0  0  0  0
   16.3960  -12.5890    0.0000 C   0  0  0  0  0  0  0  0  0  0  0  0
   17.6012  -13.2847    0.0000 C   0  0  0  0  0  0  0  0  0  0  0  0
   18.8135  -12.5846    0.0000 C   0  0  0  0  0  0  0  0  0  0  0  0
   18.8135  -11.1846    0.0000 C   0  0  0  0  0  0  0  0  0  0  0  0
   17.6083  -10.4889    0.0000 C   0  0  0  0  0  0  0  0  0  0  0  0
   16.3959  -11.1890    0.0000 N   0  0  0  0  0  0  0  0  0  0  0  0
   20.0314  -10.4812    0.0000 C   0  0  0  0  0  0  0  0  0  0  0  0
   20.0451  -13.2954    0.0000 N   0  0  0  0  0  0  0  0  0  0  0  0
   20.0453  -14.6998    0.0000 C   0  0  0  0  0  0  0  0  0  0  0  0
   21.2579  -15.3996    0.0000 C   0  0  0  0  0  0  0  0  0  0  0  0
   22.4702  -14.6993    0.0000 C   0  0  0  0  0  0  0  0  0  0  0  0
   22.4699  -13.2950    0.0000 C   0  0  0  0  0  0  0  0  0  0  0  0
   21.2574  -12.5952    0.0000 C   0  0  0  0  0  0  0  0  0  0  0  0
   21.2572  -11.2002    0.0000 O   0  0  0  0  0  0  0  0  0  0  0  0
   23.6801  -12.5960    0.0000 Cl  0  0  0  0  0  0  0  0  0  0  0  0
   18.8141  -15.4112    0.0000 C   0  0  0  0  0  0  0  0  0  0  0  0
   23.6829  -15.3992    0.0000 O   0  0  0  0  0  0  0  0  0  0  0  0
   24.8776  -14.7090    0.0000 C   0  0  0  0  0  0  0  0  0  0  0  0
   26.0656  -15.3946    0.0000 C   0  0  0  0  0  0  0  0  0  0  0  0
   26.0659  -16.7998    0.0000 C   0  0  0  0  0  0  0  0  0  0  0  0
   27.2786  -17.4994    0.0000 C   0  0  0  0  0  0  0  0  0  0  0  0
   28.4908  -16.7991    0.0000 C   0  0  0  0  0  0  0  0  0  0  0  0
   28.4904  -15.3939    0.0000 C   0  0  0  0  0  0  0  0  0  0  0  0
   27.2778  -14.6942    0.0000 N   0  0  0  0  0  0  0  0  0  0  0  0
   24.8343  -17.5115    0.0000 F   0  0  0  0  0  0  0  0  0  0  0  0
   29.7032  -17.4987    0.0000 F   0  0  0  0  0  0  0  0  0  0  0  0
  1  2  2  0     0  0
  2  3  1  0     0  0
  3  4  2  0     0  0
  4  5  1  0     0  0
  5  6  2  0     0  0
  1  6  1  0     0  0
  1  7  1  0     0  0
  7  8  1  0     0  0
  7  9  1  0     0  0
  7 10  1  0     0  0
  5 11  1  0     0  0
 11 12  2  0     0  0
 12 13  1  0     0  0
 13 14  2  0     0  0
 14 15  1  0     0  0
 15 16  2  0     0  0
 11 16  1  0     0  0
 14 17  1  0     0  0
 13 18  1  0     0  0
 18 19  1  0     0  0
 19 20  2  0     0  0
 20 21  1  0     0  0
 21 22  2  0     0  0
 22 23  1  0     0  0
 18 23  1  0     0  0
 23 24  2  0     0  0
 22 25  1  0     0  0
 19 26  1  0     0  0
 21 27  1  0     0  0
 27 28  1  0     0  0
 28 29  1  0     0  0
 29 30  2  0     0  0
 30 31  1  0     0  0
 31 32  2  0     0  0
 32 33  1  0     0  0
 33 34  2  0     0  0
 29 34  1  0     0  0
 30 35  1  0     0  0
 32 36  1  0     0  0
M  END
