 
 
 
 36 36  0  0  0  0  0  0  0  0999 V2000
   18.5519  -10.8319    0.0000 C   0  0  0  0  0  0  0  0  0  0  0  0
   18.5519  -12.2436    0.0000 C   0  0  0  0  0  0  0  0  0  0  0  0
   19.7519  -12.9495    0.0000 C   0  0  0  0  0  0  0  0  0  0  0  0
   21.0225  -12.2436    0.0000 C   0  0  0  0  0  0  0  0  0  0  0  0
   21.0225  -10.8319    0.0000 C   0  0  0  0  0  0  0  0  0  0  0  0
   19.7519  -10.1260    0.0000 C   0  0  0  0  0  0  0  0  0  0  0  0
   17.3519  -12.9495    0.0000 C   0  0  0  0  0  0  0  0  0  0  0  0
   22.2225  -10.1260    0.0000 I   4  0  0  0  0  0  0  0  0  0  0  0
   16.1519  -12.2436    0.0000 C   0  0  0  0  0  0  0  0  0  0  0  0
   14.9519  -12.9495    0.0000 C   0  0  0  0  0  0  0  0  0  0  0  0
   13.7519  -12.2436    0.0000 C   0  0  0  0  0  0  0  0  0  0  0  0
   12.5519  -12.9495    0.0000 C   0  0  0  0  0  0  0  0  0  0  0  0
   11.3519  -12.2436    0.0000 C   0  0  0  0  0  0  0  0  0  0  0  0
   10.1519  -12.9495    0.0000 C   0  0  0  0  0  0  0  0  0  0  0  0
    8.9519  -12.2436    0.0000 C   0  0  0  0  0  0  0  0  0  0  0  0
    7.7519  -12.9495    0.0000 C   0  0  0  0  0  0  0  0  0  0  0  0
    6.5518  -12.2436    0.0000 C   0  0  0  0  0  0  0  0  0  0  0  0
    5.3518  -12.9495    0.0000 C   0  0  0  0  0  0  0  0  0  0  0  0
    4.1518  -12.2436    0.0000 C   0  0  0  0  0  0  0  0  0  0  0  0
    2.9518  -12.9495    0.0000 C   0  0  0  0  0  0  0  0  0  0  0  0
    4.1518  -10.8319    0.0000 C   0  0  0  0  0  0  0  0  0  0  0  0
    5.3518  -10.1260    0.0000 C   0  0  0  0  0  0  0  0  0  0  0  0
    6.5518  -10.8319    0.0000 O   0  0  0  0  0  0  0  0  0  0  0  0
    7.7519  -10.1260    0.0000 P   0  0  0  0  0  0  0  0  0  0  0  0
    8.9519  -10.8319    0.0000 O   0  0  0  0  0  0  0  0  0  0  0  0
    6.7636   -9.1377    0.0000 O   0  0  0  0  0  0  0  0  0  0  0  0
    8.7401   -9.1377    0.0000 O   0  5  0  0  0  0  0  0  0  0  0  0
   10.1519  -10.1260    0.0000 C   0  0  0  0  0  0  0  0  0  0  0  0
   11.3519  -10.8319    0.0000 C   0  0  0  0  0  0  0  0  0  0  0  0
   12.5519  -10.1260    0.0000 N   0  3  0  0  0  0  0  0  0  0  0  0
   13.7519  -10.8319    0.0000 C   0  0  0  0  0  0  0  0  0  0  0  0
   11.5636   -9.1377    0.0000 C   0  0  0  0  0  0  0  0  0  0  0  0
   13.2578   -8.9260    0.0000 C   0  0  0  0  0  0  0  0  0  0  0  0
    2.9518  -10.1260    0.0000 C   0  0  0  0  0  0  0  0  0  0  0  0
    1.7518  -10.8319    0.0000 C   0  0  0  0  0  0  0  0  0  0  0  0
    1.7518  -12.2436    0.0000 C   0  0  0  0  0  0  0  0  0  0  0  0
  1  2  2  0     0  0
  2  3  1  0     0  0
  3  4  2  0     0  0
  4  5  1  0     0  0
  5  6  2  0     0  0
  1  6  1  0     0  0
  2  7  1  0     0  0
  5  8  1  0     0  0
  7  9  1  0     0  0
  9 10  1  0     0  0
 10 11  1  0     0  0
 11 12  1  0     0  0
 12 13  1  0     0  0
 13 14  1  0     0  0
 14 15  1  0     0  0
 15 16  1  0     0  0
 16 17  1  0     0  0
 17 18  1  0     0  0
 18 19  1  0     0  0
 19 20  1  0     0  0
 21 22  1  0     0  0
 22 23  1  0     0  0
 23 24  1  0     0  0
 24 25  1  0     0  0
 24 26  2  0     0  0
 24 27  1  0     0  0
 25 28  1  0     0  0
 28 29  1  0     0  0
 29 30  1  0     0  0
 30 31  1  0     0  0
 30 32  1  0     0  0
 30 33  1  0     0  0
 21 34  1  0     0  0
 34 35  1  0     0  0
 35 36  1  0     0  0
 36 20  1  0     0  0
M  CHG  2  27  -1  30   1
M  ISO  1   8 131
M  END
