 
 
 
 39 43  0  0  1  0  0  0  0  0999 V2000
   11.7600  -18.6900    0.0000 C   0  0  0  0  0  0  0  0  0  0  0  0
   11.7600  -20.0900    0.0000 C   0  0  0  0  0  0  0  0  0  0  0  0
   12.9724  -20.7900    0.0000 C   0  0  0  0  0  0  0  0  0  0  0  0
   14.1849  -20.0900    0.0000 C   0  0  0  0  0  0  0  0  0  0  0  0
   14.1849  -18.6900    0.0000 C   0  0  0  0  0  0  0  0  0  0  0  0
   12.9724  -17.9900    0.0000 C   0  0  0  0  0  0  0  0  0  0  0  0
   15.3973  -20.7900    0.0000 C   0  0  0  0  0  0  0  0  0  0  0  0
   16.6097  -20.0900    0.0000 C   0  0  0  0  0  0  0  0  0  0  0  0
   16.6097  -18.6900    0.0000 N   0  0  0  0  0  0  0  0  0  0  0  0
   15.3973  -17.9900    0.0000 C   0  0  0  0  0  0  0  0  0  0  0  0
   15.3973  -16.5900    0.0000 C   0  0  0  0  0  0  0  0  0  0  0  0
   16.5317  -15.7658    0.0000 C   0  0  0  0  0  0  0  0  0  0  0  0
   16.0984  -14.4323    0.0000 S   0  0  0  0  0  0  0  0  0  0  0  0
   14.6962  -14.4323    0.0000 C   0  0  0  0  0  0  0  0  0  0  0  0
   14.2629  -15.7658    0.0000 C   0  0  0  0  0  0  0  0  0  0  0  0
   13.8688  -13.2935    0.0000 C   0  0  0  0  0  0  0  0  0  0  0  0
   12.4671  -13.3008    0.0000 C   0  0  0  0  0  0  0  0  0  0  0  0
   14.4966  -12.0531    0.0000 O   0  0  0  0  0  0  0  0  0  0  0  0
   11.7586  -12.0884    0.0000 C   0  0  0  0  0  0  0  0  0  0  0  0
   10.3586  -12.0957    0.0000 N   0  0  0  0  0  0  0  0  0  0  0  0
    9.6650  -13.3118    0.0000 C   0  0  0  0  0  0  0  0  0  0  0  0
   10.3735  -14.5242    0.0000 N   0  0  0  0  0  0  0  0  0  0  0  0
   11.7734  -14.5169    0.0000 C   0  0  0  0  0  0  0  0  0  0  0  0
   12.4434  -10.8881    0.0000 N   0  0  0  0  0  0  0  0  0  0  0  0
   11.7551   -9.7104    0.0000 C   0  0  0  0  0  0  0  0  0  0  0  0
   12.1927   -8.3985    0.0000 C   0  0  0  0  0  0  0  0  0  0  0  0
   11.0803   -7.5752    0.0000 C   0  0  0  0  0  0  0  0  0  0  0  0
    9.9535   -8.3787    0.0000 C   0  0  0  0  0  0  0  0  0  0  0  0
   10.3695   -9.6986    0.0000 C   0  0  0  0  0  0  0  0  0  0  0  0
    8.6204   -7.9323    0.0000 O   0  0  0  0  0  0  0  0  0  0  0  0
   11.0931   -6.1604    0.0000 C   0  0  0  0  0  0  0  0  0  0  0  0
   12.2867   -5.4852    0.0000 O   0  0  0  0  0  0  0  0  0  0  0  0
   13.5059   -6.2040    0.0000 S   0  0  0  0  0  0  0  0  0  0  0  0
   14.7184   -6.9040    0.0000 N   0  0  0  0  0  0  0  0  0  0  0  0
   12.8059   -7.4165    0.0000 O   0  0  0  0  0  0  0  0  0  0  0  0
   14.2059   -4.9916    0.0000 O   0  0  0  0  0  0  0  0  0  0  0  0
   17.8479  -16.1934    0.0000 C   0  0  0  0  0  0  0  0  0  0  0  0
   10.5476  -17.9900    0.0000 Cl  0  0  0  0  0  0  0  0  0  0  0  0
   16.6097  -17.2900    0.0000 H   0  0  0  0  0  0  0  0  0  0  0  0
  1  2  2  0     0  0
  2  3  1  0     0  0
  3  4  2  0     0  0
  4  5  1  0     0  0
  5  6  2  0     0  0
  1  6  1  0     0  0
  4  7  1  0     0  0
  7  8  1  0     0  0
  8  9  1  0     0  0
  9 10  1  0     0  0
  5 10  1  0     0  0
 10 11  1  0     0  0
 11 12  2  0     0  0
 12 13  1  0     0  0
 13 14  1  0     0  0
 14 15  2  0     0  0
 11 15  1  0     0  0
 14 16  1  0     0  0
 16 17  1  0     0  0
 16 18  2  0     0  0
 17 19  2  0     0  0
 19 20  1  0     0  0
 20 21  2  0     0  0
 21 22  1  0     0  0
 22 23  2  0     0  0
 17 23  1  0     0  0
 19 24  1  0     0  0
 25 24  1  1     0  0
 25 26  1  0     0  0
 26 27  1  0     0  0
 27 28  1  0     0  0
 28 29  1  0     0  0
 25 29  1  0     0  0
 28 30  1  6     0  0
 27 31  1  1     0  0
 31 32  1  0     0  0
 32 33  1  0     0  0
 33 34  1  0     0  0
 33 35  2  0     0  0
 33 36  2  0     0  0
 12 37  1  0     0  0
  1 38  1  0     0  0
 10 39  1  1     0  0
M  END
