 
 
 
 38 43  0  0  1  0  0  0  0  0999 V2000
   15.3300  -16.8000    0.0000 C   0  0  0  0  0  0  0  0  0  0  0  0
   15.3300  -15.4000    0.0000 C   0  0  0  0  0  0  0  0  0  0  0  0
   14.1400  -14.7000    0.0000 N   0  0  0  0  0  0  0  0  0  0  0  0
   12.8800  -15.4000    0.0000 C   0  0  0  0  0  0  0  0  0  0  0  0
   12.8800  -16.8000    0.0000 C   0  0  0  0  0  0  0  0  0  0  0  0
   14.1400  -17.5000    0.0000 C   0  0  0  0  0  0  0  0  0  0  0  0
   16.5200  -17.5000    0.0000 C   0  0  0  0  0  0  0  0  0  0  0  0
   17.7800  -16.8000    0.0000 C   0  0  0  0  0  0  0  0  0  0  0  0
   17.7800  -15.4000    0.0000 C   0  0  0  0  0  0  0  0  0  0  0  0
   16.5200  -14.7000    0.0000 C   0  0  0  0  0  0  0  0  0  0  0  0
   18.9700  -14.7000    0.0000 O   0  0  0  0  0  0  0  0  0  0  0  0
   11.6900  -17.5000    0.0000 C   0  0  0  0  0  0  0  0  0  0  0  0
   11.6900  -18.9000    0.0000 C   0  0  0  0  0  0  0  0  0  0  0  0
   12.8800  -19.6000    0.0000 O   0  0  0  0  0  0  0  0  0  0  0  0
   14.1400  -18.9000    0.0000 C   0  0  0  0  0  0  0  0  0  0  0  0
   10.5000  -16.8000    0.0000 C   0  0  0  0  0  0  0  0  0  0  0  0
    9.2400  -17.5000    0.0000 C   0  0  0  0  0  0  0  0  0  0  0  0
    9.2400  -18.9000    0.0000 C   0  0  0  0  0  0  0  0  0  0  0  0
   10.5000  -19.6000    0.0000 C   0  0  0  0  0  0  0  0  0  0  0  0
    8.0500  -19.6000    0.0000 C   0  0  0  0  0  0  0  0  0  0  0  0
    6.7900  -20.3000    0.0000 F   0  0  0  0  0  0  0  0  0  0  0  0
    8.7500  -20.7900    0.0000 F   0  0  0  0  0  0  0  0  0  0  0  0
    7.3500  -18.4100    0.0000 F   0  0  0  0  0  0  0  0  0  0  0  0
   15.3300  -19.6000    0.0000 C   0  0  0  0  0  0  0  0  0  0  0  0
   15.3300  -21.0000    0.0000 C   0  0  0  0  0  0  0  0  0  0  0  0
   16.5900  -21.7000    0.0000 C   0  0  0  0  0  0  0  0  0  0  0  0
   17.7800  -21.0000    0.0000 C   0  0  0  0  0  0  0  0  0  0  0  0
   17.7800  -19.6000    0.0000 C   0  0  0  0  0  0  0  0  0  0  0  0
   16.5900  -18.9000    0.0000 C   0  0  0  0  0  0  0  0  0  0  0  0
   18.9700  -21.7000    0.0000 O   0  0  0  0  0  0  0  0  0  0  0  0
   20.1600  -21.0000    0.0000 C   0  0  0  0  0  0  0  0  0  0  0  0
   21.3500  -21.7000    0.0000 C   0  0  0  0  0  0  0  0  0  0  0  0
   22.5400  -21.0000    0.0000 N   0  0  0  0  0  0  0  0  0  0  0  0
   23.8700  -21.3500    0.0000 C   0  0  0  0  0  0  0  0  0  0  0  0
   24.2200  -20.0200    0.0000 C   0  0  0  0  0  0  0  0  0  0  0  0
   22.8900  -19.6700    0.0000 C   0  0  0  0  0  0  0  0  0  0  0  0
   25.4800  -19.3200    0.0000 C   0  0  0  0  0  0  0  0  0  0  0  0
   26.6700  -20.0200    0.0000 F   0  0  0  0  0  0  0  0  0  0  0  0
  1  2  2  0     0  0
  2  3  1  0     0  0
  3  4  2  0     0  0
  4  5  1  0     0  0
  5  6  2  0     0  0
  1  6  1  0     0  0
  1  7  1  0     0  0
  7  8  2  0     0  0
  8  9  1  0     0  0
  9 10  2  0     0  0
  2 10  1  0     0  0
  9 11  1  0     0  0
  5 12  1  0     0  0
 12 13  1  0     0  0
 13 14  1  0     0  0
 14 15  1  0     0  0
  6 15  1  0     0  0
 12 16  2  0     0  0
 16 17  1  0     0  0
 17 18  2  0     0  0
 18 19  1  0     0  0
 13 19  2  0     0  0
 18 20  1  0     0  0
 20 21  1  0     0  0
 20 22  1  0     0  0
 20 23  1  0     0  0
 15 24  1  1     0  0
 24 25  2  0     0  0
 25 26  1  0     0  0
 26 27  2  0     0  0
 27 28  1  0     0  0
 28 29  2  0     0  0
 24 29  1  0     0  0
 27 30  1  0     0  0
 30 31  1  0     0  0
 31 32  1  0     0  0
 32 33  1  0     0  0
 33 34  1  0     0  0
 34 35  1  0     0  0
 35 36  1  0     0  0
 33 36  1  0     0  0
 35 37  1  0     0  0
 37 38  1  0     0  0
M  END
