 
     RDKit          2D

130145  0  0  0  0  0  0  0  0999 V2000
   20.1906  -21.2472    0.0000 C   0  0  0  0  0  0  0  0  0  0  0  0
   20.1906  -19.8560    0.0000 N   0  0  0  0  0  0  0  0  0  0  0  0
   19.0081  -19.1604    0.0000 C   0  0  0  0  0  0  0  0  0  0  0  0
   17.7560  -19.8560    0.0000 C   0  0  0  0  0  0  0  0  0  0  0  0
   17.7560  -21.2472    0.0000 C   0  0  0  0  0  0  0  0  0  0  0  0
   19.0081  -21.9428    0.0000 N   0  0  0  0  0  0  0  0  0  0  0  0
   16.4343  -19.4386    0.0000 C   0  0  0  0  0  0  0  0  0  0  0  0
   15.6692  -20.5516    0.0000 C   0  0  0  0  0  0  0  0  0  0  0  0
   16.4343  -21.6645    0.0000 S   0  0  0  0  0  0  0  0  0  0  0  0
   19.0081  -17.7692    0.0000 O   0  0  0  0  0  0  0  0  0  0  0  0
   21.3731  -21.9428    0.0000 O   0  0  0  0  0  0  0  0  0  0  0  0
   21.3731  -19.1604    0.0000 C   0  0  0  0  0  0  0  0  0  0  0  0
   22.5557  -19.8560    0.0000 C   0  0  0  0  0  0  0  0  0  0  0  0
   23.8077  -19.1604    0.0000 C   0  0  0  0  0  0  0  0  0  0  0  0
   23.8077  -17.7692    0.0000 C   0  0  0  0  0  0  0  0  0  0  0  0
   22.6252  -17.0735    0.0000 N   0  0  0  0  0  0  0  0  0  0  0  0
   21.3731  -17.7692    0.0000 N   0  0  0  0  0  0  0  0  0  0  0  0
   24.9903  -17.0735    0.0000 O   0  0  0  0  0  0  0  0  0  0  0  0
   26.1728  -17.7692    0.0000 C   0  0  0  0  0  0  0  0  0  0  0  0
   19.0081  -24.3100    0.0000 C   0  0  0  0  0  0  0  0  0  0  0  0
   14.2779  -20.5516    0.0000 C   0  0  0  0  0  0  0  0  0  0  0  0
   13.5823  -19.3690    0.0000 C   0  0  0  0  0  0  0  0  0  0  0  0
   12.1911  -19.3690    0.0000 C   0  0  0  0  0  0  0  0  0  0  0  0
   11.4955  -20.5516    0.0000 C   0  0  0  0  0  0  0  0  0  0  0  0
   12.1911  -21.7341    0.0000 C   0  0  0  0  0  0  0  0  0  0  0  0
   13.5823  -21.7341    0.0000 C   0  0  0  0  0  0  0  0  0  0  0  0
   10.1043  -20.5516    0.0000 N   0  0  0  0  0  0  0  0  0  0  0  0
   16.0170  -18.1170    0.0000 C   0  0  0  0  0  0  0  0  0  0  0  0
   14.6283  -17.8381    0.0000 N   0  0  0  0  0  0  0  0  0  0  0  0
   13.5161  -18.6562    0.0000 C   0  0  0  0  0  0  0  0  0  0  0  0
   14.5129  -16.4569    0.0000 C   0  0  0  0  0  0  0  0  0  0  0  0
   20.2352  -25.0190    0.0000 C   0  0  0  0  0  0  0  0  0  0  0  0
   20.2347  -26.3900    0.0000 C   0  0  0  0  0  0  0  0  0  0  0  0
   21.4468  -27.0905    0.0000 C   0  0  0  0  0  0  0  0  0  0  0  0
   22.6595  -26.3909    0.0000 C   0  0  0  0  0  0  0  0  0  0  0  0
   22.6601  -25.0200    0.0000 C   0  0  0  0  0  0  0  0  0  0  0  0
   21.4479  -24.3195    0.0000 C   0  0  0  0  0  0  0  0  0  0  0  0
   19.0185  -27.0916    0.0000 F   0  0  0  0  0  0  0  0  0  0  0  0
   21.4490  -22.8903    0.0000 F   0  0  0  0  0  0  0  0  0  0  0  0
    9.3912  -21.7988    0.0000 C   0  0  0  0  0  0  0  0  0  0  0  0
    7.9804  -21.8050    0.0000 N   0  0  0  0  0  0  0  0  0  0  0  0
   10.0811  -22.9818    0.0000 O   0  0  0  0  0  0  0  0  0  0  0  0
    7.2596  -20.5696    0.0000 O   0  0  0  0  0  0  0  0  0  0  0  0
    5.8800  -20.5761    0.0000 C   0  0  0  0  0  0  0  0  0  0  0  0
   19.0779  -11.8363    0.0000 C   0  0  0  0  0  0  0  0  0  0  0  0
   19.0779  -13.2006    0.0000 C   0  0  0  0  0  0  0  0  0  0  0  0
   20.2594  -13.8828    0.0000 C   0  0  0  0  0  0  0  0  0  0  0  0
   21.4411  -13.2006    0.0000 C   0  0  0  0  0  0  0  0  0  0  0  0
   21.4411  -11.8363    0.0000 C   0  0  0  0  0  0  0  0  0  0  0  0
   20.2594  -11.1541    0.0000 C   0  0  0  0  0  0  0  0  0  0  0  0
   22.6226  -13.8828    0.0000 C   0  0  0  0  0  0  0  0  0  0  0  0
   23.8041  -13.2006    0.0000 C   0  0  0  0  0  0  0  0  0  0  0  0
   23.8041  -11.8363    0.0000 C   0  0  0  0  0  0  0  0  0  0  0  0
   22.6226  -11.1541    0.0000 C   0  0  0  0  0  0  0  0  0  0  0  0
   24.9857  -11.1541    0.0000 C   0  0  0  0  0  0  0  0  0  0  0  0
   24.9857   -9.7898    0.0000 C   0  0  0  0  0  0  0  0  0  0  0  0
   23.8041   -9.1076    0.0000 C   0  0  0  0  0  0  0  0  0  0  0  0
   22.6226   -9.7898    0.0000 C   0  0  0  0  0  0  0  0  0  0  0  0
   27.3487  -11.1541    0.0000 C   0  0  0  0  0  0  0  0  0  0  0  0
   27.3487   -9.7898    0.0000 C   0  0  0  0  0  0  0  0  0  0  0  0
   26.1672   -9.1076    0.0000 C   0  0  0  0  0  0  0  0  0  0  0  0
   26.1672   -7.7433    0.0000 O   0  0  0  0  0  0  0  0  0  0  0  0
   17.8964  -13.8828    0.0000 O   0  0  0  0  0  0  0  0  0  0  0  0
   24.9857   -8.4255    0.0000 C   0  0  0  0  0  0  0  0  0  0  0  0
   27.3000  -19.4600    0.0000 C   0  0  0  0  0  0  0  0  0  0  0  0
   26.1100  -20.0900    0.0000 C   0  0  0  0  0  0  0  0  0  0  0  0
   27.3000  -18.0600    0.0000 C   0  0  0  0  0  0  0  0  0  0  0  0
   29.6100  -19.4600    0.0000 C   0  0  0  0  0  0  0  0  0  0  0  0
   24.9200  -19.3900    0.0000 C   0  0  0  0  0  0  0  0  0  0  0  0
   26.1100  -21.4900    0.0000 C   0  0  0  0  0  0  0  0  0  0  0  0
   26.1100  -17.3600    0.0000 C   0  0  0  0  0  0  0  0  0  0  0  0
   28.4900  -17.4300    0.0000 C   0  0  0  0  0  0  0  0  0  0  0  0
   27.3000  -16.7300    0.0000 C   0  0  0  0  0  0  0  0  0  0  0  0
   29.6100  -18.1300    0.0000 C   0  0  0  0  0  0  0  0  0  0  0  0
   23.7300  -20.0900    0.0000 C   0  0  0  0  0  0  0  0  0  0  0  0
   24.9200  -18.0600    0.0000 C   0  0  0  0  0  0  0  0  0  0  0  0
   24.9200  -22.1200    0.0000 C   0  0  0  0  0  0  0  0  0  0  0  0
   28.4900  -16.0300    0.0000 O   0  0  0  0  0  0  0  0  0  0  0  0
   23.7300  -21.4900    0.0000 C   0  0  0  0  0  0  0  0  0  0  0  0
   22.5400  -19.3900    0.0000 C   0  0  0  0  0  0  0  0  0  0  0  0
   22.5400  -22.1200    0.0000 C   0  0  0  0  0  0  0  0  0  0  0  0
   21.3500  -20.0900    0.0000 C   0  0  0  0  0  0  0  0  0  0  0  0
   21.3500  -21.4900    0.0000 C   0  0  0  0  0  0  0  0  0  0  0  0
   20.1600  -22.1200    0.0000 O   0  0  0  0  0  0  0  0  0  0  0  0
   34.8600  -18.9700    0.0000 O   0  0  0  0  0  0  0  0  0  0  0  0
   27.3000  -19.4600    0.0000 C   0  0  0  0  0  0  0  0  0  0  0  0
   26.1100  -20.0900    0.0000 C   0  0  0  0  0  0  0  0  0  0  0  0
   24.9200  -19.3900    0.0000 C   0  0  0  0  0  0  0  0  0  0  0  0
   23.7300  -20.0900    0.0000 C   0  0  0  0  0  0  0  0  0  0  0  0
   23.7300  -21.4900    0.0000 C   0  0  0  0  0  0  0  0  0  0  0  0
   22.5400  -22.1200    0.0000 C   0  0  0  0  0  0  0  0  0  0  0  0
   21.3500  -21.4900    0.0000 C   0  0  0  0  0  0  0  0  0  0  0  0
   20.1600  -22.1200    0.0000 O   0  0  0  0  0  0  0  0  0  0  0  0
   21.3500  -20.0900    0.0000 C   0  0  0  0  0  0  0  0  0  0  0  0
   22.5400  -19.3900    0.0000 C   0  0  0  0  0  0  0  0  0  0  0  0
   24.9200  -22.1200    0.0000 C   0  0  0  0  0  0  0  0  0  0  0  0
   26.1100  -21.4900    0.0000 C   0  0  0  0  0  0  0  0  0  0  0  0
   24.9200  -18.0600    0.0000 C   0  0  0  0  0  0  0  0  0  0  0  0
   26.1100  -17.3600    0.0000 C   0  0  0  0  0  0  0  0  0  0  0  0
   27.3000  -18.0600    0.0000 C   0  0  0  0  0  0  0  0  0  0  0  0
   28.4900  -17.4300    0.0000 C   0  0  0  0  0  0  0  0  0  0  0  0
   28.4900  -16.0300    0.0000 O   0  0  0  0  0  0  0  0  0  0  0  0
   29.6100  -18.1300    0.0000 C   0  0  0  0  0  0  0  0  0  0  0  0
   29.6100  -19.4600    0.0000 C   0  0  0  0  0  0  0  0  0  0  0  0
   27.3000  -16.7300    0.0000 C   0  0  0  0  0  0  0  0  0  0  0  0
   26.8820  -17.0674    0.0000 C   0  0  0  0  0  0  0  0  0  0  0  0
   28.0682  -16.3895    0.0000 C   0  0  0  0  0  0  0  0  0  0  0  0
   26.8705  -18.4405    0.0000 C   0  0  0  0  0  0  0  0  0  0  0  0
   25.7075  -16.3836    0.0000 C   0  0  0  0  0  0  0  0  0  0  0  0
   26.8762  -15.7000    0.0000 C   0  0  0  0  0  0  0  0  0  0  0  0
   29.2545  -17.0791    0.0000 C   0  0  0  0  0  0  0  0  0  0  0  0
   28.0567  -15.0162    0.0000 O   0  0  0  0  0  0  0  0  0  0  0  0
   29.2487  -15.7000    0.0000 C   0  0  0  0  0  0  0  0  0  0  0  0
   25.6842  -19.1184    0.0000 C   0  0  0  0  0  0  0  0  0  0  0  0
   29.2429  -18.3822    0.0000 C   0  0  0  0  0  0  0  0  0  0  0  0
   24.5155  -17.0557    0.0000 C   0  0  0  0  0  0  0  0  0  0  0  0
   28.0567  -13.6548    0.0000 C   0  0  0  0  0  0  0  0  0  0  0  0
   30.4292  -15.0105    0.0000 C   0  0  0  0  0  0  0  0  0  0  0  0
   24.5038  -18.4231    0.0000 C   0  0  0  0  0  0  0  0  0  0  0  0
   25.6842  -20.4917    0.0000 C   0  0  0  0  0  0  0  0  0  0  0  0
   29.2429  -12.9710    0.0000 C   0  0  0  0  0  0  0  0  0  0  0  0
   26.8762  -12.9769    0.0000 O   0  0  0  0  0  0  0  0  0  0  0  0
   23.3175  -19.1009    0.0000 C   0  0  0  0  0  0  0  0  0  0  0  0
   24.4921  -21.1696    0.0000 C   0  0  0  0  0  0  0  0  0  0  0  0
   23.3118  -20.4800    0.0000 C   0  0  0  0  0  0  0  0  0  0  0  0
   22.1371  -18.4172    0.0000 C   0  0  0  0  0  0  0  0  0  0  0  0
   22.1371  -21.1636    0.0000 C   0  0  0  0  0  0  0  0  0  0  0  0
   20.9508  -19.1009    0.0000 C   0  0  0  0  0  0  0  0  0  0  0  0
   20.9508  -20.4800    0.0000 C   0  0  0  0  0  0  0  0  0  0  0  0
   19.7588  -21.1579    0.0000 O   0  0  0  0  0  0  0  0  0  0  0  0
  1  2  1  0
  2  3  1  0
  3  4  1  0
  4  5  2  0
  5  6  1  0
  1  6  1  0
  4  7  1  0
  7  8  2  0
  8  9  1  0
  5  9  1  0
  3 10  2  0
  1 11  2  0
  2 12  1  0
 12 13  2  0
 13 14  1  0
 14 15  2  0
 15 16  1  0
 16 17  2  0
 12 17  1  0
 15 18  1  0
 18 19  1  0
  6 20  1  0
  8 21  1  0
 21 22  2  0
 22 23  1  0
 23 24  2  0
 24 25  1  0
 25 26  2  0
 21 26  1  0
 24 27  1  0
  7 28  1  0
 28 29  1  0
 29 30  1  0
 29 31  1  0
 20 32  1  0
 32 33  2  0
 33 34  1  0
 34 35  2  0
 35 36  1  0
 36 37  2  0
 32 37  1  0
 33 38  1  0
 37 39  1  0
 27 40  1  0
 40 41  1  0
 40 42  2  0
 41 43  1  0
 43 44  1  0
 45 46  2  0
 46 47  1  0
 47 48  2  0
 48 49  1  0
 49 50  2  0
 45 50  1  0
 48 51  1  0
 51 52  1  0
 53 52  1  6
 53 54  1  0
 49 54  1  0
 53 55  1  0
 55 56  1  0
 56 57  1  0
 57 58  1  0
 54 58  1  1
 55 59  1  1
 59 60  1  0
 60 61  1  0
 56 61  1  0
 61 62  1  1
 46 63  1  0
 56 64  1  1
 65 66  1  0
 65 67  1  0
 65 68  1  1
 66 69  1  0
 66 70  1  6
 67 71  1  0
 67 72  1  0
 67 73  1  1
 68 74  1  0
 69 75  1  0
 69 76  1  1
 70 77  1  0
 72 78  1  1
 75 79  2  0
 75 80  1  0
 79 81  1  0
 80 82  2  0
 81 83  2  0
 83 84  1  0
 71 76  1  0
 72 74  1  0
 77 79  1  0
 82 83  1  0
 86 87  1  0
 86100  1  0
 86104  1  1
 87 88  1  0
 87 97  1  6
100 99  1  0
100101  1  0
100105  1  1
104103  1  0
 88 89  1  0
 88 98  1  1
 97 96  1  0
101102  1  1
 89 90  1  0
 89 95  2  0
 90 91  2  0
 95 94  1  0
 91 92  1  0
 92 93  1  0
 99 98  1  0
101103  1  0
 96 90  1  0
 94 92  2  0
106107  1  0
106108  1  0
106109  1  0
106110  1  1
107111  1  0
107112  1  0
107113  1  6
108114  1  0
108115  1  1
109116  1  0
112117  1  0
113118  3  0
114119  1  0
114120  1  6
117121  1  0
117122  2  0
119123  1  0
120124  1  0
123125  1  0
123126  1  6
125127  2  0
126128  1  0
127129  1  0
129130  2  0
111115  1  0
119116  1  1
124125  1  0
128129  1  0
M  END
