 
 
 
 39 43  0  0  0  0  0  0  0  0999 V2000
   20.1600  -25.9700    0.0000 C   0  0  0  0  0  0  0  0  0  0  0  0
   20.1600  -27.3700    0.0000 N   0  0  0  0  0  0  0  0  0  0  0  0
   21.3500  -28.0700    0.0000 C   0  0  0  0  0  0  0  0  0  0  0  0
   22.6100  -27.3700    0.0000 N   0  0  0  0  0  0  0  0  0  0  0  0
   22.6100  -25.9700    0.0000 C   0  0  0  0  0  0  0  0  0  0  0  0
   21.3500  -25.2700    0.0000 C   0  0  0  0  0  0  0  0  0  0  0  0
   21.3500  -29.4700    0.0000 N   0  0  0  0  0  0  0  0  0  0  0  0
   22.5400  -30.1700    0.0000 C   0  0  0  0  0  0  0  0  0  0  0  0
   22.5400  -31.5700    0.0000 C   0  0  0  0  0  0  0  0  0  0  0  0
   23.8000  -32.2700    0.0000 C   0  0  0  0  0  0  0  0  0  0  0  0
   24.9900  -31.5700    0.0000 C   0  0  0  0  0  0  0  0  0  0  0  0
   24.9900  -30.1700    0.0000 C   0  0  0  0  0  0  0  0  0  0  0  0
   23.8000  -29.4700    0.0000 C   0  0  0  0  0  0  0  0  0  0  0  0
   23.8000  -28.0700    0.0000 O   0  0  0  0  0  0  0  0  0  0  0  0
   24.9900  -27.3700    0.0000 C   0  0  0  0  0  0  0  0  0  0  0  0
   26.1800  -32.2700    0.0000 N   0  0  0  0  0  0  0  0  0  0  0  0
   27.3700  -31.5700    0.0000 C   0  0  0  0  0  0  0  0  0  0  0  0
   28.5600  -32.2700    0.0000 C   0  0  0  0  0  0  0  0  0  0  0  0
   29.7500  -31.5700    0.0000 N   0  0  0  0  0  0  0  0  0  0  0  0
   30.9400  -32.2700    0.0000 C   0  0  0  0  0  0  0  0  0  0  0  0
   29.7500  -30.1700    0.0000 C   0  0  0  0  0  0  0  0  0  0  0  0
   26.1800  -33.6700    0.0000 C   0  0  0  0  0  0  0  0  0  0  0  0
   23.8000  -33.6700    0.0000 N   0  0  0  0  0  0  0  0  0  0  0  0
   22.6100  -34.3700    0.0000 C   0  0  0  0  0  0  0  0  0  0  0  0
   21.4200  -33.6700    0.0000 C   0  0  0  0  0  0  0  0  0  0  0  0
   20.2300  -34.3700    0.0000 C   0  0  0  0  0  0  0  0  0  0  0  0
   22.6100  -35.7700    0.0000 O   0  0  0  0  0  0  0  0  0  0  0  0
   18.9700  -25.2700    0.0000 C   0  0  0  0  0  0  0  0  0  0  0  0
   18.9700  -23.8700    0.0000 C   0  0  0  0  0  0  0  0  0  0  0  0
   17.7100  -23.3800    0.0000 N   0  0  0  0  0  0  0  0  0  0  0  0
   16.8000  -24.5000    0.0000 C   0  0  0  0  0  0  0  0  0  0  0  0
   17.6400  -25.6900    0.0000 C   0  0  0  0  0  0  0  0  0  0  0  0
   17.2900  -22.0500    0.0000 C   0  0  0  0  0  0  0  0  0  0  0  0
   16.2242  -21.1156    0.0000 C   0  0  0  0  0  0  0  0  0  0  0  0
   17.5622  -20.6749    0.0000 C   0  0  0  0  0  0  0  0  0  0  0  0
   15.4058  -24.6273    0.0000 C   0  0  0  0  0  0  0  0  0  0  0  0
   14.8190  -25.8984    0.0000 C   0  0  0  0  0  0  0  0  0  0  0  0
   15.6590  -27.0884    0.0000 C   0  0  0  0  0  0  0  0  0  0  0  0
   17.0532  -26.9611    0.0000 C   0  0  0  0  0  0  0  0  0  0  0  0
  1  2  2  0     0  0
  2  3  1  0     0  0
  3  4  2  0     0  0
  4  5  1  0     0  0
  5  6  2  0     0  0
  1  6  1  0     0  0
  3  7  1  0     0  0
  7  8  1  0     0  0
  8  9  2  0     0  0
  9 10  1  0     0  0
 10 11  2  0     0  0
 11 12  1  0     0  0
 12 13  2  0     0  0
  8 13  1  0     0  0
 13 14  1  0     0  0
 14 15  1  0     0  0
 11 16  1  0     0  0
 16 17  1  0     0  0
 17 18  1  0     0  0
 18 19  1  0     0  0
 19 20  1  0     0  0
 19 21  1  0     0  0
 16 22  1  0     0  0
 10 23  1  0     0  0
 23 24  1  0     0  0
 24 25  1  0     0  0
 25 26  2  0     0  0
 24 27  2  0     0  0
  1 28  1  0     0  0
 28 29  2  0     0  0
 29 30  1  0     0  0
 30 31  1  0     0  0
 31 32  1  0     0  0
 28 32  1  0     0  0
 30 33  1  0     0  0
 35 34  1  0     0  0
 34 33  1  0     0  0
 33 35  1  0     0  0
 31 36  2  0     0  0
 36 37  1  0     0  0
 37 38  2  0     0  0
 38 39  1  0     0  0
 32 39  2  0     0  0
M  END
