 
 
 
 17 18  0  0  1  0  0  0  0  0999 V2000
   15.0078  -16.1944    0.0000 N   0  0  0  0  0  0  0  0  0  0  0  0
   15.0078  -17.5905    0.0000 C   0  0  0  0  0  0  0  0  0  0  0  0
   16.2642  -18.2885    0.0000 N   0  0  0  0  0  0  0  0  0  0  0  0
   16.2642  -15.4964    0.0000 C   0  0  0  0  0  0  0  0  0  0  0  0
   17.4509  -16.1944    0.0000 C   0  0  0  0  0  0  0  0  0  0  0  0
   17.4509  -17.5905    0.0000 C   0  0  0  0  0  0  0  0  0  0  0  0
   18.6375  -18.2885    0.0000 N   0  0  0  0  0  0  0  0  0  0  0  0
   19.8939  -17.5905    0.0000 C   0  0  0  0  0  0  0  0  0  0  0  0
   19.8939  -16.1944    0.0000 C   0  0  1  0  0  0  0  0  0  0  0  0
   18.6375  -15.4964    0.0000 N   0  0  0  0  0  0  0  0  0  0  0  0
   21.0806  -15.4964    0.0000 C   0  0  2  0  0  0  0  0  0  0  0  0
   22.2672  -16.1944    0.0000 C   0  0  2  0  0  0  0  0  0  0  0  0
   23.5237  -15.4964    0.0000 C   0  0  0  0  0  0  0  0  0  0  0  0
   22.2672  -17.5905    0.0000 O   0  0  0  0  0  0  0  0  0  0  0  0
   21.0806  -14.1003    0.0000 O   0  0  0  0  0  0  0  0  0  0  0  0
   13.8211  -18.2885    0.0000 N   0  0  0  0  0  0  0  0  0  0  0  0
   16.2642  -14.1003    0.0000 O   0  0  0  0  0  0  0  0  0  0  0  0
  8  9  1  0     0  0
  9 10  2  0     0  0
 10  5  1  0     0  0
  4  1  1  0     0  0
  9 11  1  0     0  0
 11 12  1  0     0  0
 12 13  1  0     0  0
  1  2  1  0     0  0
 12 14  1  6     0  0
  2  3  2  0     0  0
 11 15  2  0     0  0
  3  6  1  0     0  0
  2 16  1  0     0  0
  5  4  1  0     0  0
  4 17  2  0     0  0
  5  6  2  0     0  0
  6  7  1  0     0  0
  7  8  1  0     0  0
M  END
