 
     RDKit          2D

 33 34  0  0  1  0  0  0  0  0999 V2000
   10.2430  -13.8910    0.0000 C   0  0  0  0  0  0  0  0  0  0  0  0
   10.2430  -15.2941    0.0000 C   0  0  0  0  0  0  0  0  0  0  0  0
   11.4357  -15.9957    0.0000 C   0  0  0  0  0  0  0  0  0  0  0  0
   12.6985  -15.2941    0.0000 C   0  0  0  0  0  0  0  0  0  0  0  0
   12.6985  -13.8910    0.0000 C   0  0  0  0  0  0  0  0  0  0  0  0
   11.4357  -13.1894    0.0000 C   0  0  0  0  0  0  0  0  0  0  0  0
   11.4357  -11.7863    0.0000 F   0  0  0  0  0  0  0  0  0  0  0  0
   11.4357  -17.3988    0.0000 F   0  0  0  0  0  0  0  0  0  0  0  0
    9.0503  -13.1894    0.0000 F   0  0  0  0  0  0  0  0  0  0  0  0
   13.8911  -15.9957    0.0000 C   0  0  0  0  0  0  0  0  0  0  0  0
   15.1539  -15.2941    0.0000 C   0  0  0  0  0  0  0  0  0  0  0  0
   16.2765  -15.9957    0.0000 C   0  0  0  0  0  0  0  0  0  0  0  0
   17.4691  -15.2941    0.0000 C   0  0  0  0  0  0  0  0  0  0  0  0
   18.6618  -15.9957    0.0000 N   0  0  0  0  0  0  0  0  0  0  0  0
   17.4691  -13.8910    0.0000 O   0  0  0  0  0  0  0  0  0  0  0  0
   15.1539  -13.8910    0.0000 N   0  0  0  0  0  0  0  0  0  0  0  0
   18.6618  -17.3988    0.0000 C   0  0  0  0  0  0  0  0  0  0  0  0
   19.9246  -18.1004    0.0000 C   0  0  0  0  0  0  0  0  0  0  0  0
   21.1172  -17.3988    0.0000 N   0  0  0  0  0  0  0  0  0  0  0  0
   21.1172  -15.9957    0.0000 C   0  0  0  0  0  0  0  0  0  0  0  0
   19.9246  -15.2941    0.0000 C   0  0  0  0  0  0  0  0  0  0  0  0
   22.4502  -17.8197    0.0000 C   0  0  0  0  0  0  0  0  0  0  0  0
   23.2921  -16.6972    0.0000 N   0  0  0  0  0  0  0  0  0  0  0  0
   22.4502  -15.5747    0.0000 N   0  0  0  0  0  0  0  0  0  0  0  0
   22.4502  -19.2229    0.0000 C   0  0  0  0  0  0  0  0  0  0  0  0
   22.4502  -20.6260    0.0000 F   0  0  0  0  0  0  0  0  0  0  0  0
   23.8533  -19.2229    0.0000 F   0  0  0  0  0  0  0  0  0  0  0  0
   21.0471  -19.2229    0.0000 F   0  0  0  0  0  0  0  0  0  0  0  0
   26.9402  -16.2039    0.0000 P   0  0  0  0  0  0  0  0  0  0  0  0
   28.2030  -16.2039    0.0000 O   0  0  0  0  0  0  0  0  0  0  0  0
   25.6774  -16.2039    0.0000 O   0  0  0  0  0  0  0  0  0  0  0  0
   27.0104  -17.6071    0.0000 O   0  0  0  0  0  0  0  0  0  0  0  0
   26.9402  -14.5904    0.0000 O   0  0  0  0  0  0  0  0  0  0  0  0
  1  2  2  0
  2  3  1  0
  3  4  2  0
  4  5  1  0
  5  6  2  0
  1  6  1  0
  6  7  1  0
  3  8  1  0
  1  9  1  0
  4 10  1  0
 10 11  1  0
 11 12  1  0
 12 13  1  0
 13 14  1  0
 13 15  2  0
 11 16  1  1
 14 17  1  0
 17 18  1  0
 18 19  1  0
 19 20  1  0
 20 21  1  0
 14 21  1  0
 19 22  1  0
 22 23  2  0
 23 24  1  0
 20 24  2  0
 22 25  1  0
 25 26  1  0
 25 27  1  0
 25 28  1  0
 29 30  1  0
 29 31  1  0
 29 32  1  0
 29 33  2  0
M  END
