 
 
 
 38 42  0  0  1  0  0  0  0  0999 V2000
   11.1723  -20.8639    0.0000 C   0  0  0  0  0  0  0  0  0  0  0  0
   11.1723  -22.2700    0.0000 C   0  0  0  0  0  0  0  0  0  0  0  0
   12.3676  -22.9731    0.0000 C   0  0  0  0  0  0  0  0  0  0  0  0
   13.6331  -22.2700    0.0000 C   0  0  0  0  0  0  0  0  0  0  0  0
   13.6331  -20.8639    0.0000 C   0  0  0  0  0  0  0  0  0  0  0  0
   12.3676  -20.1608    0.0000 C   0  0  0  0  0  0  0  0  0  0  0  0
   14.8284  -20.1608    0.0000 C   0  0  0  0  0  0  0  0  0  0  0  0
   16.0237  -20.8639    0.0000 N   0  0  0  0  0  0  0  0  0  0  0  0
   14.8284  -18.7546    0.0000 O   0  0  0  0  0  0  0  0  0  0  0  0
   17.2189  -20.1608    0.0000 C   0  0  0  0  0  0  0  0  0  0  0  0
   18.4142  -20.8639    0.0000 C   0  0  0  0  0  0  0  0  0  0  0  0
   17.2189  -18.7546    0.0000 C   0  0  0  0  0  0  0  0  0  0  0  0
   16.0237  -18.0515    0.0000 O   0  0  0  0  0  0  0  0  0  0  0  0
   18.4142  -18.0515    0.0000 N   0  0  0  0  0  0  0  0  0  0  0  0
   19.6094  -18.7546    0.0000 C   0  0  0  0  0  0  0  0  0  0  0  0
   20.8750  -18.0515    0.0000 C   0  0  0  0  0  0  0  0  0  0  0  0
   20.8750  -16.6453    0.0000 N   0  0  0  0  0  0  0  0  0  0  0  0
   19.6797  -15.9422    0.0000 C   0  0  0  0  0  0  0  0  0  0  0  0
   18.4142  -16.6453    0.0000 C   0  0  0  0  0  0  0  0  0  0  0  0
   22.0702  -15.9422    0.0000 C   0  0  0  0  0  0  0  0  0  0  0  0
   19.6094  -20.1608    0.0000 C   0  0  0  0  0  0  0  0  0  0  0  0
   20.8047  -20.8639    0.0000 C   0  0  0  0  0  0  0  0  0  0  0  0
   21.9999  -20.1608    0.0000 N   0  0  0  0  0  0  0  0  0  0  0  0
   23.1952  -20.8639    0.0000 C   0  0  0  0  0  0  0  0  0  0  0  0
   24.6014  -20.8639    0.0000 C   0  0  0  0  0  0  0  0  0  0  0  0
   23.8983  -22.0591    0.0000 C   0  0  0  0  0  0  0  0  0  0  0  0
   25.7966  -20.1608    0.0000 C   0  0  0  0  0  0  0  0  0  0  0  0
   26.9919  -20.8639    0.0000 C   0  0  0  0  0  0  0  0  0  0  0  0
   28.2574  -20.1608    0.0000 C   0  0  0  0  0  0  0  0  0  0  0  0
   28.2574  -18.7546    0.0000 C   0  0  0  0  0  0  0  0  0  0  0  0
   27.0622  -18.0515    0.0000 C   0  0  0  0  0  0  0  0  0  0  0  0
   25.7966  -18.7546    0.0000 C   0  0  0  0  0  0  0  0  0  0  0  0
   29.4781  -18.0564    0.0000 F   0  0  0  0  0  0  0  0  0  0  0  0
    9.9517  -22.9682    0.0000 N   0  0  0  0  0  0  0  0  0  0  0  0
    8.6924  -22.4012    0.0000 C   0  0  0  0  0  0  0  0  0  0  0  0
    7.7642  -23.4237    0.0000 C   0  0  0  0  0  0  0  0  0  0  0  0
    8.4497  -24.6226    0.0000 N   0  0  0  0  0  0  0  0  0  0  0  0
    9.8017  -24.3410    0.0000 N   0  0  0  0  0  0  0  0  0  0  0  0
  1  2  2  0     0  0
  2  3  1  0     0  0
  3  4  2  0     0  0
  4  5  1  0     0  0
  5  6  2  0     0  0
  1  6  1  0     0  0
  5  7  1  0     0  0
  7  8  1  0     0  0
  7  9  2  0     0  0
  8 10  1  0     0  0
 10 11  1  0     0  0
 10 12  1  6     0  0
 12 13  2  0     0  0
 12 14  1  0     0  0
 14 15  1  0     0  0
 15 16  1  0     0  0
 16 17  1  0     0  0
 17 18  1  0     0  0
 18 19  1  0     0  0
 14 19  1  0     0  0
 17 20  1  0     0  0
 11 21  1  0     0  0
 21 22  1  0     0  0
 22 23  1  0     0  0
 24 23  1  1     0  0
 24 25  1  0     0  0
 25 26  1  0     0  0
 26 24  1  0     0  0
 25 27  1  6     0  0
 27 28  2  0     0  0
 28 29  1  0     0  0
 29 30  2  0     0  0
 30 31  1  0     0  0
 31 32  2  0     0  0
 27 32  1  0     0  0
 30 33  1  0     0  0
  2 34  1  0     0  0
 34 35  1  0     0  0
 35 36  2  0     0  0
 36 37  1  0     0  0
 37 38  2  0     0  0
 34 38  1  0     0  0
M  END
