 
 
 
 34 38  0  0  1  0  0  0  0  0999 V2000
   12.5034  -16.3433    0.0000 C   0  0  0  0  0  0  0  0  0  0  0  0
   12.5034  -17.7402    0.0000 N   0  0  0  0  0  0  0  0  0  0  0  0
   13.6909  -18.4388    0.0000 C   0  0  0  0  0  0  0  0  0  0  0  0
   14.9481  -17.7402    0.0000 C   0  0  0  0  0  0  0  0  0  0  0  0
   14.9481  -16.3433    0.0000 C   0  0  0  0  0  0  0  0  0  0  0  0
   13.6909  -15.6448    0.0000 C   0  0  0  0  0  0  0  0  0  0  0  0
   13.6909  -19.8356    0.0000 N   0  0  0  0  0  0  0  0  0  0  0  0
   16.2752  -18.1593    0.0000 N   0  0  0  0  0  0  0  0  0  0  0  0
   17.0435  -17.0418    0.0000 C   0  0  0  0  0  0  0  0  0  0  0  0
   16.2752  -15.9243    0.0000 N   0  0  0  0  0  0  0  0  0  0  0  0
   18.4404  -17.0418    0.0000 O   0  0  0  0  0  0  0  0  0  0  0  0
   16.7641  -14.5971    0.0000 C   0  0  0  0  0  0  0  0  0  0  0  0
   17.4626  -18.8578    0.0000 C   0  0  0  0  0  0  0  0  0  0  0  0
   17.4626  -20.2547    0.0000 C   0  0  0  0  0  0  0  0  0  0  0  0
   18.6499  -20.9531    0.0000 C   0  0  0  0  0  0  0  0  0  0  0  0
   19.9072  -20.2547    0.0000 C   0  0  0  0  0  0  0  0  0  0  0  0
   19.9072  -18.8578    0.0000 C   0  0  0  0  0  0  0  0  0  0  0  0
   18.6499  -18.1593    0.0000 C   0  0  0  0  0  0  0  0  0  0  0  0
   21.0946  -20.9531    0.0000 O   0  0  0  0  0  0  0  0  0  0  0  0
   22.2819  -20.2547    0.0000 C   0  0  0  0  0  0  0  0  0  0  0  0
   23.4694  -20.9531    0.0000 C   0  0  0  0  0  0  0  0  0  0  0  0
   24.7266  -20.2547    0.0000 C   0  0  0  0  0  0  0  0  0  0  0  0
   24.7266  -18.8578    0.0000 C   0  0  0  0  0  0  0  0  0  0  0  0
   23.5392  -18.1593    0.0000 C   0  0  0  0  0  0  0  0  0  0  0  0
   22.2819  -18.8578    0.0000 C   0  0  0  0  0  0  0  0  0  0  0  0
   18.1542  -14.3575    0.0000 C   0  0  0  0  0  0  0  0  0  0  0  0
   18.6375  -13.0454    0.0000 N   0  0  0  0  0  0  0  0  0  0  0  0
   17.7429  -11.9709    0.0000 C   0  0  0  0  0  0  0  0  0  0  0  0
   16.3527  -12.2105    0.0000 C   0  0  0  0  0  0  0  0  0  0  0  0
   15.8694  -13.5226    0.0000 C   0  0  0  0  0  0  0  0  0  0  0  0
   20.0388  -12.8032    0.0000 C   0  0  0  0  0  0  0  0  0  0  0  0
   20.9398  -13.8847    0.0000 C   0  0  0  0  0  0  0  0  0  0  0  0
   20.5275  -11.4742    0.0000 O   0  0  0  0  0  0  0  0  0  0  0  0
   22.3458  -13.6412    0.0000 C   0  0  0  0  0  0  0  0  0  0  0  0
  1  2  2  0     0  0
  2  3  1  0     0  0
  3  4  2  0     0  0
  4  5  1  0     0  0
  5  6  2  0     0  0
  1  6  1  0     0  0
  3  7  1  0     0  0
  4  8  1  0     0  0
  8  9  1  0     0  0
  9 10  1  0     0  0
  5 10  1  0     0  0
  9 11  2  0     0  0
 12 10  1  6     0  0
 13 14  2  0     0  0
 14 15  1  0     0  0
 15 16  2  0     0  0
 16 17  1  0     0  0
 17 18  2  0     0  0
 16 19  1  0     0  0
 19 20  1  0     0  0
 20 21  2  0     0  0
 21 22  1  0     0  0
 22 23  2  0     0  0
 23 24  1  0     0  0
 24 25  2  0     0  0
 20 25  1  0     0  0
 18 13  1  0     0  0
 13  8  1  0     0  0
 12 26  1  0     0  0
 26 27  1  0     0  0
 27 28  1  0     0  0
 28 29  1  0     0  0
 29 30  1  0     0  0
 12 30  1  0     0  0
 27 31  1  0     0  0
 31 32  1  0     0  0
 31 33  2  0     0  0
 32 34  2  0     0  0
M  END
