 
 
 
 33 36  0  0  1  0  0  0  0  0999 V2000
   18.9000  -18.5500    0.0000 C   0  0  0  0  0  0  0  0  0  0  0  0
   18.9000  -17.1500    0.0000 C   0  0  0  0  0  0  0  0  0  0  0  0
   20.0900  -16.4500    0.0000 C   0  0  0  0  0  0  0  0  0  0  0  0
   21.3500  -17.1500    0.0000 C   0  0  0  0  0  0  0  0  0  0  0  0
   21.3500  -18.5500    0.0000 C   0  0  0  0  0  0  0  0  0  0  0  0
   20.0900  -19.2500    0.0000 C   0  0  0  0  0  0  0  0  0  0  0  0
   17.7100  -19.2500    0.0000 O   0  0  0  0  0  0  0  0  0  0  0  0
   16.5200  -18.5500    0.0000 C   0  0  0  0  0  0  0  0  0  0  0  0
   15.2600  -19.1100    0.0000 C   0  0  0  0  0  0  0  0  0  0  0  0
   14.3500  -18.1300    0.0000 O   0  0  0  0  0  0  0  0  0  0  0  0
   14.9800  -16.9400    0.0000 C   0  0  0  0  0  0  0  0  0  0  0  0
   16.3800  -17.2200    0.0000 C   0  0  0  0  0  0  0  0  0  0  0  0
   22.5400  -19.2500    0.0000 C   0  0  0  0  0  0  0  0  0  0  0  0
   23.7300  -18.5500    0.0000 N   0  0  0  0  0  0  0  0  0  0  0  0
   22.5400  -20.6500    0.0000 O   0  0  0  0  0  0  0  0  0  0  0  0
   24.9200  -19.2500    0.0000 C   0  0  0  0  0  0  0  0  0  0  0  0
   26.1100  -18.5500    0.0000 C   0  0  0  0  0  0  0  0  0  0  0  0
   24.9200  -20.6500    0.0000 C   0  0  0  0  0  0  0  0  0  0  0  0
   26.1100  -17.1500    0.0000 C   0  0  0  0  0  0  0  0  0  0  0  0
   27.3700  -16.4500    0.0000 N   0  0  0  0  0  0  0  0  0  0  0  0
   28.5600  -17.1500    0.0000 C   0  0  0  0  0  0  0  0  0  0  0  0
   28.5600  -18.5500    0.0000 N   0  0  0  0  0  0  0  0  0  0  0  0
   27.3700  -19.2500    0.0000 C   0  0  0  0  0  0  0  0  0  0  0  0
   29.7500  -16.4500    0.0000 C   0  0  0  0  0  0  0  0  0  0  0  0
   31.0100  -15.7500    0.0000 F   0  0  0  0  0  0  0  0  0  0  0  0
   30.4500  -17.6400    0.0000 F   0  0  0  0  0  0  0  0  0  0  0  0
   29.0500  -15.2600    0.0000 F   0  0  0  0  0  0  0  0  0  0  0  0
   20.0900  -15.0500    0.0000 C   0  0  0  0  0  0  0  0  0  0  0  0
   18.9700  -14.2100    0.0000 S   0  0  0  0  0  0  0  0  0  0  0  0
   19.3900  -12.8800    0.0000 C   0  0  0  0  0  0  0  0  0  0  0  0
   20.7900  -12.8800    0.0000 C   0  0  0  0  0  0  0  0  0  0  0  0
   21.2800  -14.2100    0.0000 N   0  0  0  0  0  0  0  0  0  0  0  0
   18.5500  -11.7600    0.0000 C   0  0  0  0  0  0  0  0  0  0  0  0
  1  2  2  0     0  0
  2  3  1  0     0  0
  3  4  2  0     0  0
  4  5  1  0     0  0
  5  6  2  0     0  0
  1  6  1  0     0  0
  1  7  1  0     0  0
  8  7  1  1     0  0
  8  9  1  0     0  0
  9 10  1  0     0  0
 10 11  1  0     0  0
 11 12  1  0     0  0
  8 12  1  0     0  0
  5 13  1  0     0  0
 13 14  1  0     0  0
 13 15  2  0     0  0
 14 16  1  0     0  0
 16 17  1  0     0  0
 16 18  1  1     0  0
 17 19  2  0     0  0
 19 20  1  0     0  0
 20 21  2  0     0  0
 21 22  1  0     0  0
 22 23  2  0     0  0
 17 23  1  0     0  0
 21 24  1  0     0  0
 24 25  1  0     0  0
 24 26  1  0     0  0
 24 27  1  0     0  0
  3 28  1  0     0  0
 28 29  1  0     0  0
 29 30  1  0     0  0
 30 31  2  0     0  0
 31 32  1  0     0  0
 28 32  2  0     0  0
 30 33  1  0     0  0
M  END
