 
 
 
 40 43  0  0  1  0  0  0  0  0999 V2000
   18.6200  -16.3100    0.0000 C   0  0  1  0  0  0  0  0  0  0  0  0
   20.0200  -15.2600    0.0000 N   0  0  3  0  0  0  0  0  0  0  0  0
   18.2700  -17.6400    0.0000 C   0  0  3  0  0  0  0  0  0  0  0  0
   17.5000  -15.4700    0.0000 O   0  0  0  0  0  0  0  0  0  0  0  0
   21.2100  -15.8200    0.0000 C   0  0  0  0  0  0  0  0  0  0  0  0
   20.0200  -13.7900    0.0000 C   0  0  0  0  0  0  0  0  0  0  0  0
   16.8000  -17.6400    0.0000 C   0  0  1  0  0  0  0  0  0  0  0  0
   18.2700  -19.0400    0.0000 F   0  0  0  0  0  0  0  0  0  0  0  0
   19.5300  -17.6400    0.0000 F   0  0  0  0  0  0  0  0  0  0  0  0
   16.3800  -16.3100    0.0000 C   0  0  1  0  0  0  0  0  0  0  0  0
   22.3300  -15.1200    0.0000 N   0  0  0  0  0  0  0  0  0  0  0  0
   21.2100  -17.1500    0.0000 O   0  0  0  0  0  0  0  0  0  0  0  0
   21.0700  -13.0200    0.0000 C   0  0  0  0  0  0  0  0  0  0  0  0
   15.9600  -18.6900    0.0000 O   0  0  0  0  0  0  0  0  0  0  0  0
   22.3300  -13.7200    0.0000 C   0  0  0  0  0  0  0  0  0  0  0  0
   23.4500  -12.8800    0.0000 N   0  0  0  0  0  0  0  0  0  0  0  0
   15.1900  -15.6100    0.0000 C   0  0  0  0  0  0  0  0  0  0  0  0
   14.0000  -16.3100    0.0000 O   0  0  0  0  0  0  0  0  0  0  0  0
   12.6700  -15.6100    0.0000 P   0  0  0  0  0  0  0  0  0  0  0  0
   11.4800  -16.3100    0.0000 N   0  0  0  0  0  0  0  0  0  0  0  0
   10.2900  -15.6100    0.0000 C   0  0  0  0  0  0  0  0  0  0  0  0
    9.1000  -16.3100    0.0000 C   0  0  0  0  0  0  0  0  0  0  0  0
    7.9100  -15.6100    0.0000 O   0  0  0  0  0  0  0  0  0  0  0  0
    6.7200  -16.3100    0.0000 C   0  0  0  0  0  0  0  0  0  0  0  0
   11.6200  -14.6300    0.0000 O   0  0  0  0  0  0  0  0  0  0  0  0
   13.6500  -14.6300    0.0000 O   0  0  0  0  0  0  0  0  0  0  0  0
   13.3000  -13.3000    0.0000 C   0  0  0  0  0  0  0  0  0  0  0  0
   14.2800  -12.3200    0.0000 C   0  0  0  0  0  0  0  0  0  0  0  0
   13.9300  -10.9200    0.0000 C   0  0  0  0  0  0  0  0  0  0  0  0
   12.5300  -10.5700    0.0000 C   0  0  0  0  0  0  0  0  0  0  0  0
   11.5500  -11.5500    0.0000 C   0  0  0  0  0  0  0  0  0  0  0  0
   11.9000  -12.9500    0.0000 C   0  0  0  0  0  0  0  0  0  0  0  0
   10.2900  -14.2100    0.0000 C   0  0  0  0  0  0  0  0  0  0  0  0
    9.1000  -17.7100    0.0000 O   0  0  0  0  0  0  0  0  0  0  0  0
    5.5300  -15.6100    0.0000 C   0  0  0  0  0  0  0  0  0  0  0  0
    5.5300  -14.2100    0.0000 C   0  0  0  0  0  0  0  0  0  0  0  0
    4.2700  -13.5100    0.0000 C   0  0  0  0  0  0  0  0  0  0  0  0
    3.0800  -14.2100    0.0000 C   0  0  0  0  0  0  0  0  0  0  0  0
    3.0800  -15.6100    0.0000 C   0  0  0  0  0  0  0  0  0  0  0  0
    4.2700  -16.3100    0.0000 C   0  0  0  0  0  0  0  0  0  0  0  0
  1  2  1  1     0  0
  1  3  1  0     0  0
  1  4  1  0     0  0
  2  5  1  0     0  0
  2  6  1  0     0  0
  3  7  1  0     0  0
  3  8  1  0     0  0
  3  9  1  0     0  0
  4 10  1  0     0  0
  5 11  1  0     0  0
  5 12  2  0     0  0
  6 13  2  0     0  0
  7 14  1  6     0  0
 11 15  2  0     0  0
 15 16  1  0     0  0
  7 10  1  0     0  0
 13 15  1  0     0  0
 10 17  1  1     0  0
 17 18  1  0     0  0
 19 18  1  6     0  0
 19 20  1  1     0  0
 20 21  1  0     0  0
 21 22  1  0     0  0
 22 23  1  0     0  0
 23 24  1  0     0  0
 19 25  2  0     0  0
 19 26  1  0     0  0
 26 27  1  0     0  0
 27 28  2  0     0  0
 28 29  1  0     0  0
 29 30  2  0     0  0
 30 31  1  0     0  0
 31 32  2  0     0  0
 27 32  1  0     0  0
 21 33  1  6     0  0
 22 34  2  0     0  0
 24 35  1  0     0  0
 35 36  2  0     0  0
 36 37  1  0     0  0
 37 38  2  0     0  0
 38 39  1  0     0  0
 39 40  2  0     0  0
 35 40  1  0     0  0
M  END
