 
 
 
 78 77  0  0  0  0  0  0  0  0999 V2000
   17.9200  -13.5100    0.0000 C   0  0  0  0  0  0  0  0  0  0  0  0
   17.2200  -14.7700    0.0000 N   0  0  0  0  0  0  0  0  0  0  0  0
   20.0200  -14.7700    0.0000 N   0  0  0  0  0  0  0  0  0  0  0  0
   19.3200  -13.5100    0.0000 C   0  0  0  0  0  0  0  0  0  0  0  0
   16.0300  -15.4700    0.0000 C   0  0  0  0  0  0  0  0  0  0  0  0
   16.0300  -16.8700    0.0000 C   0  0  0  0  0  0  0  0  0  0  0  0
   17.2200  -17.5700    0.0000 N   0  0  0  0  0  0  0  0  0  0  0  0
   20.0200  -17.5700    0.0000 N   0  0  0  0  0  0  0  0  0  0  0  0
   21.2800  -16.8700    0.0000 C   0  0  0  0  0  0  0  0  0  0  0  0
   21.2800  -15.4700    0.0000 C   0  0  0  0  0  0  0  0  0  0  0  0
   17.9200  -18.7600    0.0000 C   0  0  0  0  0  0  0  0  0  0  0  0
   19.3200  -18.7600    0.0000 C   0  0  0  0  0  0  0  0  0  0  0  0
   16.2400  -13.7900    0.0000 C   0  0  0  0  0  0  0  0  0  0  0  0
   16.5900  -12.4600    0.0000 C   0  0  0  0  0  0  0  0  0  0  0  0
   17.9200  -12.0400    0.0000 O   0  5  0  0  0  0  0  0  0  0  0  0
   15.6100  -11.4800    0.0000 O   0  0  0  0  0  0  0  0  0  0  0  0
   14.8400  -17.5700    0.0000 C   0  0  0  0  0  0  0  0  0  0  0  0
   16.0300  -18.2700    0.0000 C   0  0  0  0  0  0  0  0  0  0  0  0
   13.6500  -18.2700    0.0000 O   0  0  0  0  0  0  0  0  0  0  0  0
   14.8400  -16.1700    0.0000 O   0  5  0  0  0  0  0  0  0  0  0  0
   21.0000  -18.5500    0.0000 C   0  0  0  0  0  0  0  0  0  0  0  0
   20.6500  -19.8800    0.0000 C   0  0  0  0  0  0  0  0  0  0  0  0
   19.3200  -20.2300    0.0000 O   0  5  0  0  0  0  0  0  0  0  0  0
   21.6300  -20.9300    0.0000 O   0  0  0  0  0  0  0  0  0  0  0  0
   21.2100  -14.0700    0.0000 C   0  0  0  0  0  0  0  0  0  0  0  0
   22.4000  -14.7700    0.0000 C   0  0  0  0  0  0  0  0  0  0  0  0
   23.6600  -14.0700    0.0000 N   0  0  0  0  0  0  0  0  0  0  0  0
   22.4000  -16.1700    0.0000 O   0  0  0  0  0  0  0  0  0  0  0  0
   24.8500  -14.7700    0.0000 C   0  0  0  0  0  0  0  0  0  0  0  0
   26.0400  -14.0700    0.0000 C   0  0  0  0  0  0  0  0  0  0  0  0
   27.2300  -14.7700    0.0000 C   0  0  0  0  0  0  0  0  0  0  0  0
   28.4900  -14.0700    0.0000 C   0  0  0  0  0  0  0  0  0  0  0  0
   28.4900  -12.6700    0.0000 C   0  0  0  0  0  0  0  0  0  0  0  0
   27.2300  -11.9700    0.0000 C   0  0  0  0  0  0  0  0  0  0  0  0
   26.0400  -12.6700    0.0000 C   0  0  0  0  0  0  0  0  0  0  0  0
   29.6800  -11.9000    0.0000 C   0  0  0  0  0  0  0  0  0  0  0  0
   30.8700  -12.6000    0.0000 N   0  0  0  0  0  0  0  0  0  0  0  0
   29.6800  -10.5000    0.0000 O   0  0  0  0  0  0  0  0  0  0  0  0
   32.0600  -11.9000    0.0000 C   0  0  0  0  0  0  0  0  0  0  0  0
   33.2500  -12.6000    0.0000 C   0  0  0  0  0  0  0  0  0  0  0  0
   32.0600  -10.5000    0.0000 C   0  0  0  0  0  0  0  0  0  0  0  0
   34.4400  -11.9000    0.0000 N   0  0  0  0  0  0  0  0  0  0  0  0
   33.2500  -14.0000    0.0000 O   0  0  0  0  0  0  0  0  0  0  0  0
   33.2500   -9.8000    0.0000 C   0  0  0  0  0  0  0  0  0  0  0  0
   34.4400  -10.5000    0.0000 C   0  0  0  0  0  0  0  0  0  0  0  0
   35.7000   -9.8000    0.0000 C   0  0  0  0  0  0  0  0  0  0  0  0
   35.7000   -8.4000    0.0000 C   0  0  0  0  0  0  0  0  0  0  0  0
   34.4400   -7.7000    0.0000 C   0  0  0  0  0  0  0  0  0  0  0  0
   33.2500   -8.4000    0.0000 C   0  0  0  0  0  0  0  0  0  0  0  0
   36.8900  -10.4300    0.0000 C   0  0  0  0  0  0  0  0  0  0  0  0
   38.0800   -9.7300    0.0000 C   0  0  0  0  0  0  0  0  0  0  0  0
   38.0800   -8.3300    0.0000 C   0  0  0  0  0  0  0  0  0  0  0  0
   36.8900   -7.6300    0.0000 C   0  0  0  0  0  0  0  0  0  0  0  0
   35.7000  -12.6000    0.0000 C   0  0  0  0  0  0  0  0  0  0  0  0
   36.8900  -11.8300    0.0000 C   0  0  0  0  0  0  0  0  0  0  0  0
   38.0800  -12.5300    0.0000 C   0  0  0  0  0  0  0  0  0  0  0  0
   39.2700  -11.8300    0.0000 C   0  0  0  0  0  0  0  0  0  0  0  0
   40.4600  -12.5300    0.0000 C   0  0  0  0  0  0  0  0  0  0  0  0
   41.6500  -11.8300    0.0000 C   0  0  0  0  0  0  0  0  0  0  0  0
   42.9100  -12.5300    0.0000 O   0  5  0  0  0  0  0  0  0  0  0  0
   41.6500  -10.4300    0.0000 O   0  0  0  0  0  0  0  0  0  0  0  0
   40.4600  -13.9300    0.0000 N   0  0  0  0  0  0  0  0  0  0  0  0
   41.6500  -14.6300    0.0000 C   0  0  0  0  0  0  0  0  0  0  0  0
   42.8400  -13.9300    0.0000 N   0  0  0  0  0  0  0  0  0  0  0  0
   41.6500  -16.0300    0.0000 O   0  0  0  0  0  0  0  0  0  0  0  0
   44.0581  -14.6201    0.0000 C   0  0  0  0  0  0  0  0  0  0  0  0
   45.2395  -13.9250    0.0000 C   0  0  0  0  0  0  0  0  0  0  0  0
   43.9998  -16.0294    0.0000 C   0  0  0  0  0  0  0  0  0  0  0  0
   42.7831  -16.6666    0.0000 O   0  0  0  0  0  0  0  0  0  0  0  0
   45.2039  -16.7929    0.0000 O   0  5  0  0  0  0  0  0  0  0  0  0
   46.4449  -14.6080    0.0000 C   0  0  0  0  0  0  0  0  0  0  0  0
   47.6161  -13.9191    0.0000 C   0  0  0  0  0  0  0  0  0  0  0  0
   48.8265  -14.6051    0.0000 O   0  5  0  0  0  0  0  0  0  0  0  0
   47.6048  -12.5300    0.0000 O   0  0  0  0  0  0  0  0  0  0  0  0
   18.2922  -16.3719    0.0000 Lu  2  1  0  0  0  0  0  0  0  0  0  0
   44.4500  -11.4800    0.0000 H   0  3  0  0  0  0  0  0  0  0  0  0
   48.9300  -16.5200    0.0000 H   0  3  0  0  0  0  0  0  0  0  0  0
   45.2900  -18.9000    0.0000 H   0  3  0  0  0  0  0  0  0  0  0  0
  1  2  1  0     0  0
  3  4  1  0     0  0
  1  4  1  0     0  0
  5  6  1  0     0  0
  6  7  1  0     0  0
  2  5  1  0     0  0
  8  9  1  0     0  0
  9 10  1  0     0  0
 10  3  1  0     0  0
  7 11  1  0     0  0
 11 12  1  0     0  0
 12  8  1  0     0  0
  2 13  1  0     0  0
 13 14  1  0     0  0
 14 15  1  0     0  0
 14 16  2  0     0  0
 17 18  1  0     0  0
 18  7  1  0     0  0
 17 19  2  0     0  0
 17 20  1  0     0  0
  8 21  1  0     0  0
 21 22  1  0     0  0
 22 23  1  0     0  0
 22 24  2  0     0  0
 25 26  1  0     0  0
 25  3  1  0     0  0
 26 27  1  0     0  0
 26 28  2  0     0  0
 27 29  1  0     0  0
 29 30  1  0     0  0
 30 31  1  0     0  0
 31 32  1  0     0  0
 32 33  1  0     0  0
 33 34  1  0     0  0
 34 35  1  0     0  0
 30 35  1  0     0  0
 33 36  1  0     0  0
 36 37  1  0     0  0
 36 38  2  0     0  0
 37 39  1  0     0  0
 39 40  1  0     0  0
 39 41  1  0     0  0
 40 42  1  0     0  0
 40 43  2  0     0  0
 41 44  1  0     0  0
 44 45  2  0     0  0
 45 46  1  0     0  0
 46 47  2  0     0  0
 47 48  1  0     0  0
 48 49  2  0     0  0
 44 49  1  0     0  0
 46 50  1  0     0  0
 50 51  2  0     0  0
 51 52  1  0     0  0
 52 53  2  0     0  0
 47 53  1  0     0  0
 42 54  1  0     0  0
 54 55  1  0     0  0
 55 56  1  0     0  0
 56 57  1  0     0  0
 57 58  1  0     0  0
 58 59  1  0     0  0
 59 60  1  0     0  0
 59 61  2  0     0  0
 58 62  1  0     0  0
 62 63  1  0     0  0
 63 64  1  0     0  0
 63 65  2  0     0  0
 64 66  1  0     0  0
 66 67  1  0     0  0
 66 68  1  0     0  0
 68 69  2  0     0  0
 68 70  1  0     0  0
 67 71  1  0     0  0
 71 72  1  0     0  0
 72 73  1  0     0  0
 72 74  2  0     0  0
M  CHG  8  15  -1  20  -1  23  -1  60  -1  70  -1  73  -1  75   3  76   1
M  CHG  2  77   1  78   1
M  ISO  1  75 177
M  END
