 
 
 
 19 19  0  0  1  0  0  0  0  0999 V2000
   20.7172  -15.6079    0.0000 C   0  0  0  0  0  0  0  0  0  0  0  0
   20.7172  -17.0077    0.0000 C   0  0  0  0  0  0  0  0  0  0  0  0
   21.9071  -17.7076    0.0000 C   0  0  0  0  0  0  0  0  0  0  0  0
   23.1669  -17.0077    0.0000 C   0  0  0  0  0  0  0  0  0  0  0  0
   23.1669  -15.6079    0.0000 C   0  0  0  0  0  0  0  0  0  0  0  0
   21.9071  -14.9080    0.0000 C   0  0  0  0  0  0  0  0  0  0  0  0
   19.5274  -14.9080    0.0000 N   0  0  0  0  0  0  0  0  0  0  0  0
   18.2675  -15.6079    0.0000 C   0  0  0  0  0  0  0  0  0  0  0  0
   16.9377  -15.2580    0.0000 N   0  0  0  0  0  0  0  0  0  0  0  0
   16.2378  -16.3778    0.0000 C   0  0  0  0  0  0  0  0  0  0  0  0
   17.0777  -17.4977    0.0000 C   0  0  0  0  0  0  0  0  0  0  0  0
   18.3375  -17.0077    0.0000 S   0  0  0  0  0  0  0  0  0  0  0  0
   21.9071  -13.5082    0.0000 O   0  0  0  0  0  0  0  0  0  0  0  0
   14.8380  -16.4478    0.0000 C   0  0  0  0  0  0  0  0  0  0  0  0
   14.0681  -15.2580    0.0000 O   0  0  0  0  0  0  0  0  0  0  0  0
   14.1381  -17.7076    0.0000 O   0  0  0  0  0  0  0  0  0  0  0  0
   18.0576  -18.4775    0.0000 C   0  0  0  0  0  0  0  0  0  0  0  0
   15.8179  -18.1976    0.0000 C   0  0  0  0  0  0  0  0  0  0  0  0
   24.2900  -19.1100    0.0000 Cl  0  0  0  0  0  0  0  0  0  0  0  0
  1  2  2  0     0  0
  2  3  1  0     0  0
  3  4  2  0     0  0
  4  5  1  0     0  0
  5  6  2  0     0  0
  1  6  1  0     0  0
  1  7  1  0     0  0
  7  8  1  0     0  0
  8  9  2  0     0  0
  9 10  1  0     0  0
 10 11  1  0     0  0
 11 12  1  0     0  0
  8 12  1  0     0  0
  6 13  1  0     0  0
 10 14  1  1     0  0
 14 15  1  0     0  0
 14 16  2  0     0  0
 11 17  1  1     0  0
 11 18  1  6     0  0
M  END
