 
 
 
 18 19  0  0  1  0  0  0  0  0999 V2000
   22.4000  -12.2500    0.0000 C   0  0  0  0  0  0  0  0  0  0  0  0
   22.4000  -13.6500    0.0000 C   0  0  0  0  0  0  0  0  0  0  0  0
   23.6124  -14.3500    0.0000 C   0  0  0  0  0  0  0  0  0  0  0  0
   24.8249  -13.6500    0.0000 C   0  0  0  0  0  0  0  0  0  0  0  0
   24.8249  -12.2500    0.0000 C   0  0  0  0  0  0  0  0  0  0  0  0
   23.6124  -11.5500    0.0000 C   0  0  0  0  0  0  0  0  0  0  0  0
   21.1876  -11.5500    0.0000 N   0  0  0  0  0  0  0  0  0  0  0  0
   19.9921  -12.2404    0.0000 C   0  0  0  0  0  0  0  0  0  0  0  0
   18.6699  -11.8796    0.0000 N   0  0  0  0  0  0  0  0  0  0  0  0
   17.9145  -13.0232    0.0000 C   0  0  0  0  0  0  0  0  0  0  0  0
   18.7686  -14.0951    0.0000 C   0  0  0  0  0  0  0  0  0  0  0  0
   20.0520  -13.6139    0.0000 S   0  0  0  0  0  0  0  0  0  0  0  0
   23.6124  -10.1502    0.0000 O   0  0  0  0  0  0  0  0  0  0  0  0
   16.5215  -13.0853    0.0000 C   0  0  0  0  0  0  0  0  0  0  0  0
   15.7699  -11.9079    0.0000 O   0  0  0  0  0  0  0  0  0  0  0  0
   15.8740  -14.3320    0.0000 O   0  0  0  0  0  0  0  0  0  0  0  0
   19.7586  -15.0850    0.0000 C   0  0  0  0  0  0  0  0  0  0  0  0
   17.5562  -14.7951    0.0000 C   0  0  0  0  0  0  0  0  0  0  0  0
  1  2  2  0     0  0
  2  3  1  0     0  0
  3  4  2  0     0  0
  4  5  1  0     0  0
  5  6  2  0     0  0
  1  6  1  0     0  0
  1  7  1  0     0  0
  7  8  1  0     0  0
  8  9  2  0     0  0
  9 10  1  0     0  0
 10 11  1  0     0  0
 11 12  1  0     0  0
  8 12  1  0     0  0
  6 13  1  0     0  0
 10 14  1  1     0  0
 14 15  1  0     0  0
 14 16  2  0     0  0
 11 17  1  1     0  0
 11 18  1  6     0  0
M  END
