 
 
 
 32 35  0  0  0  0  0  0  0  0999 V2000
    9.5900  -13.8600    0.0000 N   0  0  0  0  0  0  0  0  0  0  0  0
    9.5900  -15.2600    0.0000 C   0  0  0  0  0  0  0  0  0  0  0  0
   10.8024  -15.9600    0.0000 C   0  0  0  0  0  0  0  0  0  0  0  0
   12.0149  -15.2600    0.0000 C   0  0  0  0  0  0  0  0  0  0  0  0
   12.0149  -13.8600    0.0000 C   0  0  0  0  0  0  0  0  0  0  0  0
   10.8024  -13.1600    0.0000 C   0  0  0  0  0  0  0  0  0  0  0  0
   13.3464  -15.6926    0.0000 C   0  0  0  0  0  0  0  0  0  0  0  0
   14.1693  -14.5600    0.0000 N   0  0  0  0  0  0  0  0  0  0  0  0
   13.3464  -13.4274    0.0000 N   0  0  0  0  0  0  0  0  0  0  0  0
    8.3776  -13.1600    0.0000 C   0  0  0  0  0  0  0  0  0  0  0  0
    7.1821  -13.8504    0.0000 C   0  0  0  0  0  0  0  0  0  0  0  0
    8.3775  -11.7602    0.0000 O   0  0  0  0  0  0  0  0  0  0  0  0
   13.7775  -17.0194    0.0000 C   0  0  0  0  0  0  0  0  0  0  0  0
   15.1569  -17.3126    0.0000 N   0  0  0  0  0  0  0  0  0  0  0  0
   12.8511  -18.0485    0.0000 O   0  0  0  0  0  0  0  0  0  0  0  0
   15.5862  -18.6328    0.0000 C   0  0  0  0  0  0  0  0  0  0  0  0
   16.9557  -18.9235    0.0000 C   0  0  0  0  0  0  0  0  0  0  0  0
   17.8922  -17.8829    0.0000 C   0  0  0  0  0  0  0  0  0  0  0  0
   17.4629  -16.5627    0.0000 C   0  0  0  0  0  0  0  0  0  0  0  0
   16.0935  -16.2719    0.0000 C   0  0  0  0  0  0  0  0  0  0  0  0
   19.2810  -18.1783    0.0000 C   0  0  0  0  0  0  0  0  0  0  0  0
   19.7169  -19.5198    0.0000 C   0  0  0  0  0  0  0  0  0  0  0  0
   21.0864  -19.8109    0.0000 C   0  0  0  0  0  0  0  0  0  0  0  0
   22.0231  -18.7704    0.0000 C   0  0  0  0  0  0  0  0  0  0  0  0
   21.5871  -17.4289    0.0000 C   0  0  0  0  0  0  0  0  0  0  0  0
   20.2177  -17.1378    0.0000 C   0  0  0  0  0  0  0  0  0  0  0  0
   23.4160  -19.0667    0.0000 F   0  0  0  0  0  0  0  0  0  0  0  0
   21.5171  -21.1367    0.0000 F   0  0  0  0  0  0  0  0  0  0  0  0
   18.7857  -20.5544    0.0000 C   0  0  0  0  0  0  0  0  0  0  0  0
   17.7958  -19.5644    0.0000 F   0  0  0  0  0  0  0  0  0  0  0  0
   19.7757  -21.5443    0.0000 F   0  0  0  0  0  0  0  0  0  0  0  0
   17.7958  -21.5443    0.0000 F   0  0  0  0  0  0  0  0  0  0  0  0
  1  2  1  0     0  0
  2  3  1  0     0  0
  3  4  1  0     0  0
  4  5  2  0     0  0
  5  6  1  0     0  0
  1  6  1  0     0  0
  4  7  1  0     0  0
  7  8  2  0     0  0
  8  9  1  0     0  0
  5  9  1  0     0  0
  1 10  1  0     0  0
 10 11  1  0     0  0
 10 12  2  0     0  0
  7 13  1  0     0  0
 13 14  1  0     0  0
 13 15  2  0     0  0
 14 16  1  0     0  0
 16 17  1  0     0  0
 17 18  1  0     0  0
 18 19  1  0     0  0
 19 20  1  0     0  0
 14 20  1  0     0  0
 18 21  1  0     0  0
 21 22  2  0     0  0
 22 23  1  0     0  0
 23 24  2  0     0  0
 24 25  1  0     0  0
 25 26  2  0     0  0
 21 26  1  0     0  0
 24 27  1  0     0  0
 23 28  1  0     0  0
 22 29  1  0     0  0
 29 30  1  0     0  0
 29 31  1  0     0  0
 29 32  1  0     0  0
M  END
