 
 
 
 30 35  0  0  1  0  0  0  0  0999 V2000
    9.8700  -20.3700    0.0000 C   0  0  0  0  0  0  0  0  0  0  0  0
    9.8700  -18.9700    0.0000 C   0  0  0  0  0  0  0  0  0  0  0  0
   11.0600  -18.2700    0.0000 C   0  0  0  0  0  0  0  0  0  0  0  0
   12.3200  -18.9700    0.0000 C   0  0  0  0  0  0  0  0  0  0  0  0
   12.3200  -20.3700    0.0000 C   0  0  0  0  0  0  0  0  0  0  0  0
   11.0600  -21.0700    0.0000 N   0  0  0  0  0  0  0  0  0  0  0  0
   13.6500  -18.5500    0.0000 C   0  0  0  0  0  0  0  0  0  0  0  0
   14.4200  -19.6700    0.0000 N   0  0  0  0  0  0  0  0  0  0  0  0
   13.6500  -20.7900    0.0000 N   0  0  0  0  0  0  0  0  0  0  0  0
   14.0700  -22.1200    0.0000 C   0  0  0  0  0  0  0  0  0  0  0  0
   15.4000  -22.5400    0.0000 N   0  0  0  0  0  0  0  0  0  0  0  0
   15.4000  -23.9400    0.0000 N   0  0  0  0  0  0  0  0  0  0  0  0
   14.0700  -24.4300    0.0000 C   0  0  0  0  0  0  0  0  0  0  0  0
   13.2300  -23.2400    0.0000 C   0  0  0  0  0  0  0  0  0  0  0  0
    8.6800  -21.0700    0.0000 N   0  0  0  0  0  0  0  0  0  0  0  0
    8.6800  -22.4700    0.0000 C   0  0  0  0  0  0  0  0  0  0  0  0
    7.4200  -23.1700    0.0000 C   0  0  0  0  0  0  0  0  0  0  0  0
    6.2300  -22.4700    0.0000 O   0  0  0  0  0  0  0  0  0  0  0  0
    6.2300  -21.0700    0.0000 C   0  0  0  0  0  0  0  0  0  0  0  0
    7.4200  -20.3700    0.0000 C   0  0  0  0  0  0  0  0  0  0  0  0
   11.0600  -16.8700    0.0000 C   0  0  0  0  0  0  0  0  0  0  0  0
    9.8000  -16.2400    0.0000 C   0  0  0  0  0  0  0  0  0  0  0  0
   12.3200  -16.3100    0.0000 C   0  0  0  0  0  0  0  0  0  0  0  0
   12.6700  -14.9800    0.0000 C   0  0  0  0  0  0  0  0  0  0  0  0
    9.5200  -14.8400    0.0000 C   0  0  0  0  0  0  0  0  0  0  0  0
   11.8300  -13.7900    0.0000 C   0  0  0  0  0  0  0  0  0  0  0  0
   10.4300  -13.7900    0.0000 C   0  0  0  0  0  0  0  0  0  0  0  0
   11.1300  -15.5400    0.0000 O   0  0  0  0  0  0  0  0  0  0  0  0
    9.8700  -23.1700    0.0000 C   0  0  0  0  0  0  0  0  0  0  0  0
   12.2500  -17.5700    0.0000 O   0  0  0  0  0  0  0  0  0  0  0  0
  1  2  2  0     0  0
  2  3  1  0     0  0
  3  4  2  0     0  0
  4  5  1  0     0  0
  5  6  2  0     0  0
  1  6  1  0     0  0
  4  7  1  0     0  0
  7  8  2  0     0  0
  8  9  1  0     0  0
  5  9  1  0     0  0
  9 10  1  0     0  0
 10 11  2  0     0  0
 11 12  1  0     0  0
 12 13  1  0     0  0
 13 14  2  0     0  0
 10 14  1  0     0  0
  1 15  1  0     0  0
 15 16  1  0     0  0
 16 17  1  0     0  0
 17 18  1  0     0  0
 18 19  1  0     0  0
 19 20  1  0     0  0
 15 20  1  0     0  0
  3 21  1  0     0  0
 23 24  1  0     0  0
 22 25  1  0     0  0
 24 26  1  0     0  0
 21 23  1  0     0  0
 25 27  1  0     0  0
 22 21  1  0     0  0
 26 27  1  0     0  0
 25 28  1  6     0  0
 24 28  1  6     0  0
 16 29  1  6     0  0
 21 30  1  1     0  0
M  END
