 
 
 
 30 33  0  0  1  0  0  0  0  0999 V2000
   14.4900  -12.8100    0.0000 C   0  0  0  0  0  0  0  0  0  0  0  0
   14.4900  -14.2100    0.0000 C   0  0  0  0  0  0  0  0  0  0  0  0
   15.7024  -14.9100    0.0000 N   0  0  0  0  0  0  0  0  0  0  0  0
   16.9149  -14.2100    0.0000 N   0  0  0  0  0  0  0  0  0  0  0  0
   16.9149  -12.8100    0.0000 C   0  0  0  0  0  0  0  0  0  0  0  0
   15.7024  -12.1100    0.0000 C   0  0  0  0  0  0  0  0  0  0  0  0
   18.2464  -14.6426    0.0000 C   0  0  0  0  0  0  0  0  0  0  0  0
   19.0693  -13.5100    0.0000 C   0  0  0  0  0  0  0  0  0  0  0  0
   18.2464  -12.3774    0.0000 N   0  0  0  0  0  0  0  0  0  0  0  0
   18.6775  -15.9694    0.0000 C   0  0  0  0  0  0  0  0  0  0  0  0
   17.7511  -16.9985    0.0000 C   0  0  0  0  0  0  0  0  0  0  0  0
   18.1838  -18.3299    0.0000 C   0  0  0  0  0  0  0  0  0  0  0  0
   19.5533  -18.6209    0.0000 C   0  0  0  0  0  0  0  0  0  0  0  0
   20.4797  -17.5918    0.0000 C   0  0  0  0  0  0  0  0  0  0  0  0
   20.0470  -16.2603    0.0000 C   0  0  0  0  0  0  0  0  0  0  0  0
   19.9834  -19.9446    0.0000 O   0  0  0  0  0  0  0  0  0  0  0  0
   21.3218  -20.2293    0.0000 C   0  0  0  0  0  0  0  0  0  0  0  0
   21.7570  -21.5695    0.0000 C   0  0  0  0  0  0  0  0  0  0  0  0
   23.1368  -21.8632    0.0000 C   0  0  0  0  0  0  0  0  0  0  0  0
   20.8305  -22.5980    0.0000 N   0  0  0  0  0  0  0  0  0  0  0  0
   13.2776  -14.9100    0.0000 N   0  0  0  0  0  0  0  0  0  0  0  0
   12.0821  -14.2196    0.0000 C   0  0  0  0  0  0  0  0  0  0  0  0
   10.8947  -14.9051    0.0000 C   0  0  0  0  0  0  0  0  0  0  0  0
   12.0820  -12.8103    0.0000 C   0  0  0  0  0  0  0  0  0  0  0  0
    9.7035  -14.2171    0.0000 C   0  0  0  0  0  0  0  0  0  0  0  0
    8.4910  -14.9169    0.0000 C   0  0  0  0  0  0  0  0  0  0  0  0
    8.4908  -16.3169    0.0000 C   0  0  0  0  0  0  0  0  0  0  0  0
    9.6820  -17.0049    0.0000 C   0  0  0  0  0  0  0  0  0  0  0  0
   10.8945  -16.3051    0.0000 C   0  0  0  0  0  0  0  0  0  0  0  0
    7.2599  -14.2059    0.0000 F   0  0  0  0  0  0  0  0  0  0  0  0
  1  2  1  0     0  0
  2  3  2  0     0  0
  3  4  1  0     0  0
  4  5  1  0     0  0
  5  6  1  0     0  0
  1  6  2  0     0  0
  4  7  1  0     0  0
  7  8  2  0     0  0
  8  9  1  0     0  0
  5  9  2  0     0  0
  7 10  1  0     0  0
 10 11  2  0     0  0
 11 12  1  0     0  0
 12 13  2  0     0  0
 13 14  1  0     0  0
 14 15  2  0     0  0
 10 15  1  0     0  0
 13 16  1  0     0  0
 16 17  1  0     0  0
 17 18  1  0     0  0
 18 19  1  0     0  0
 18 20  1  1     0  0
  2 21  1  0     0  0
 21 22  1  0     0  0
 22 23  1  0     0  0
 22 24  1  1     0  0
 23 25  2  0     0  0
 25 26  1  0     0  0
 26 27  2  0     0  0
 27 28  1  0     0  0
 28 29  2  0     0  0
 23 29  1  0     0  0
 26 30  1  0     0  0
M  END
