 
 
 
 51 57  0  0  1  0  0  0  0  0999 V2000
   17.8115  -27.0035    0.0000 C   0  0  2  0  0  0  0  0  0  0  0  0
   16.5485  -26.3019    0.0000 C   0  0  0  0  0  0  0  0  0  0  0  0
   18.2324  -28.2664    0.0000 O   0  0  0  0  0  0  0  0  0  0  0  0
   16.6889  -27.9156    0.0000 C   0  0  0  0  0  0  0  0  0  0  0  0
   18.9341  -26.1616    0.0000 C   0  0  0  0  0  0  0  0  0  0  0  0
   16.5485  -24.8987    0.0000 C   0  0  0  0  0  0  0  0  0  0  0  0
   15.3558  -27.0035    0.0000 C   0  0  0  0  0  0  0  0  0  0  0  0
   19.6357  -28.2664    0.0000 C   0  0  1  0  0  0  0  0  0  0  0  0
   15.2856  -27.9156    0.0000 N   0  0  3  0  0  0  0  0  0  0  0  0
   20.0567  -27.0035    0.0000 C   0  0  0  0  0  0  0  0  0  0  0  0
   15.3558  -24.1269    0.0000 C   0  0  0  0  0  0  0  0  0  0  0  0
   17.8115  -24.1269    0.0000 F   0  0  0  0  0  0  0  0  0  0  0  0
   14.1630  -26.3019    0.0000 C   0  0  0  0  0  0  0  0  0  0  0  0
   14.1630  -27.0737    0.0000 N   0  0  0  0  0  0  0  0  0  0  0  0
   14.8647  -29.1786    0.0000 C   0  0  0  0  0  0  0  0  0  0  0  0
   14.1630  -24.8987    0.0000 C   0  0  0  0  0  0  0  0  0  0  0  0
   13.0404  -27.9156    0.0000 C   0  0  0  0  0  0  0  0  0  0  0  0
   13.4614  -29.1786    0.0000 N   0  0  0  0  0  0  0  0  0  0  0  0
   12.9703  -24.1269    0.0000 F   0  0  0  0  0  0  0  0  0  0  0  0
   21.2494  -26.3019    0.0000 C   0  0  0  0  0  0  0  0  0  0  0  0
   22.4422  -27.0035    0.0000 O   0  0  0  0  0  0  0  0  0  0  0  0
   21.0489  -27.9957    0.0000 H   0  0  0  0  0  0  0  0  0  0  0  0
   23.8454  -27.0035    0.0000 C   0  0  0  0  0  0  0  0  0  0  0  0
   24.5470  -28.2187    0.0000 C   0  0  0  0  0  0  0  0  0  0  0  0
   25.9503  -28.2187    0.0000 C   0  0  0  0  0  0  0  0  0  0  0  0
   26.6519  -27.0035    0.0000 C   0  0  0  0  0  0  0  0  0  0  0  0
   25.9503  -25.7883    0.0000 C   0  0  0  0  0  0  0  0  0  0  0  0
   24.5470  -25.7883    0.0000 C   0  0  0  0  0  0  0  0  0  0  0  0
   28.0551  -27.0035    0.0000 N   0  0  0  0  0  0  0  0  0  0  0  0
   28.7568  -28.2187    0.0000 C   0  0  0  0  0  0  0  0  0  0  0  0
   30.1600  -28.2187    0.0000 C   0  0  0  0  0  0  0  0  0  0  0  0
   30.8616  -27.0035    0.0000 N   0  0  0  0  0  0  0  0  0  0  0  0
   30.1600  -25.7883    0.0000 C   0  0  0  0  0  0  0  0  0  0  0  0
   28.7568  -25.7883    0.0000 C   0  0  0  0  0  0  0  0  0  0  0  0
   32.2649  -27.0035    0.0000 C   0  0  0  0  0  0  0  0  0  0  0  0
   32.9665  -28.2187    0.0000 C   0  0  0  0  0  0  0  0  0  0  0  0
   34.3697  -28.2187    0.0000 C   0  0  0  0  0  0  0  0  0  0  0  0
   35.0714  -27.0035    0.0000 C   0  0  0  0  0  0  0  0  0  0  0  0
   34.3697  -25.7883    0.0000 C   0  0  0  0  0  0  0  0  0  0  0  0
   32.9665  -25.7883    0.0000 C   0  0  0  0  0  0  0  0  0  0  0  0
   36.4746  -27.0035    0.0000 C   0  0  0  0  0  0  0  0  0  0  0  0
   37.1762  -25.7883    0.0000 O   0  0  0  0  0  0  0  0  0  0  0  0
   37.1762  -28.2187    0.0000 N   0  0  0  0  0  0  0  0  0  0  0  0
   38.5793  -28.2187    0.0000 C   0  0  0  0  0  0  0  0  0  0  0  0
   39.2714  -29.4171    0.0000 C   0  0  0  0  0  0  0  0  0  0  0  0
   40.6746  -29.4169    0.0000 C   0  0  0  0  0  0  0  0  0  0  0  0
   41.3760  -28.2016    0.0000 C   0  0  0  0  0  0  0  0  0  0  0  0
   40.6840  -27.0033    0.0000 C   0  0  0  0  0  0  0  0  0  0  0  0
   39.2808  -27.0034    0.0000 C   0  0  0  0  0  0  0  0  0  0  0  0
   42.7892  -28.2015    0.0000 F   0  0  0  0  0  0  0  0  0  0  0  0
   23.8568  -29.4147    0.0000 C   0  0  0  0  0  0  0  0  0  0  0  0
  1  2  1  1     0  0
  1  3  1  0     0  0
  1  4  1  6     0  0
  1  5  1  0     0  0
  2  6  1  0     0  0
  2  7  2  0     0  0
  3  8  1  0     0  0
  4  9  1  0     0  0
  5 10  1  0     0  0
  6 11  2  0     0  0
  6 12  1  0     0  0
  7 13  1  0     0  0
  9 14  1  0     0  0
  9 15  1  0     0  0
 11 16  1  0     0  0
 14 17  2  0     0  0
 15 18  2  0     0  0
 16 19  1  0     0  0
  8 10  1  0     0  0
 13 16  2  0     0  0
 17 18  1  0     0  0
 10 20  1  6     0  0
 20 21  1  0     0  0
 10 22  1  1     0  0
 21 23  1  0     0  0
 23 24  2  0     0  0
 24 25  1  0     0  0
 25 26  2  0     0  0
 26 27  1  0     0  0
 27 28  2  0     0  0
 23 28  1  0     0  0
 26 29  1  0     0  0
 29 30  1  0     0  0
 30 31  1  0     0  0
 31 32  1  0     0  0
 32 33  1  0     0  0
 33 34  1  0     0  0
 29 34  1  0     0  0
 32 35  1  0     0  0
 35 36  2  0     0  0
 36 37  1  0     0  0
 37 38  2  0     0  0
 38 39  1  0     0  0
 39 40  2  0     0  0
 35 40  1  0     0  0
 38 41  1  0     0  0
 41 42  2  0     0  0
 41 43  1  0     0  0
 43 44  1  0     0  0
 44 45  2  0     0  0
 45 46  1  0     0  0
 46 47  2  0     0  0
 47 48  1  0     0  0
 48 49  2  0     0  0
 44 49  1  0     0  0
 47 50  1  0     0  0
 24 51  1  0     0  0
M  END
