 
 
 
 45 49  0  0  0  0  0  0  0  0999 V2000
   31.0100  -12.4600    0.0000 C   0  0  0  0  0  0  0  0  0  0  0  0
   31.0100  -13.8600    0.0000 C   0  0  0  0  0  0  0  0  0  0  0  0
   32.2000  -14.5600    0.0000 C   0  0  0  0  0  0  0  0  0  0  0  0
   33.4600  -13.8600    0.0000 C   0  0  0  0  0  0  0  0  0  0  0  0
   33.4600  -12.4600    0.0000 C   0  0  0  0  0  0  0  0  0  0  0  0
   32.2000  -11.7600    0.0000 C   0  0  0  0  0  0  0  0  0  0  0  0
   29.8200  -11.7600    0.0000 O   0  0  0  0  0  0  0  0  0  0  0  0
   29.8200  -14.5600    0.0000 O   0  0  0  0  0  0  0  0  0  0  0  0
   29.8200  -10.3600    0.0000 C   0  0  0  0  0  0  0  0  0  0  0  0
   31.0100   -9.6600    0.0000 F   0  0  0  0  0  0  0  0  0  0  0  0
   28.6300   -9.6600    0.0000 F   0  0  0  0  0  0  0  0  0  0  0  0
   28.6300  -13.8600    0.0000 C   0  0  0  0  0  0  0  0  0  0  0  0
   27.4400  -14.5600    0.0000 C   0  0  0  0  0  0  0  0  0  0  0  0
   26.7400  -15.7500    0.0000 C   0  0  0  0  0  0  0  0  0  0  0  0
   26.0400  -14.5600    0.0000 C   0  0  0  0  0  0  0  0  0  0  0  0
   34.6500  -14.5600    0.0000 C   0  0  0  0  0  0  0  0  0  0  0  0
   35.9100  -13.8600    0.0000 C   0  0  0  0  0  0  0  0  0  0  0  0
   37.1000  -14.6300    0.0000 C   0  0  0  0  0  0  0  0  0  0  0  0
   34.6500  -15.9600    0.0000 O   0  0  0  0  0  0  0  0  0  0  0  0
   37.1000  -16.0300    0.0000 C   0  0  0  0  0  0  0  0  0  0  0  0
   38.2900  -16.7300    0.0000 C   0  0  0  0  0  0  0  0  0  0  0  0
   39.5500  -16.0300    0.0000 N   0  0  0  0  0  0  0  0  0  0  0  0
   39.5500  -14.6300    0.0000 C   0  0  0  0  0  0  0  0  0  0  0  0
   38.2900  -13.9300    0.0000 C   0  0  0  0  0  0  0  0  0  0  0  0
   38.2900  -12.5300    0.0000 Cl  0  0  0  0  0  0  0  0  0  0  0  0
   35.9100  -16.7300    0.0000 Cl  0  0  0  0  0  0  0  0  0  0  0  0
   40.7400  -16.7300    0.0000 O   0  0  0  0  0  0  0  0  0  0  0  0
   33.4600  -16.6600    0.0000 C   0  0  0  0  0  0  0  0  0  0  0  0
   32.2700  -15.9600    0.0000 O   0  0  0  0  0  0  0  0  0  0  0  0
   33.4600  -18.0600    0.0000 C   0  0  0  0  0  0  0  0  0  0  0  0
   32.2700  -18.7600    0.0000 C   0  0  0  0  0  0  0  0  0  0  0  0
   32.2700  -20.1600    0.0000 C   0  0  0  0  0  0  0  0  0  0  0  0
   33.4600  -20.8600    0.0000 C   0  0  0  0  0  0  0  0  0  0  0  0
   34.6500  -20.1600    0.0000 C   0  0  0  0  0  0  0  0  0  0  0  0
   34.6500  -18.7600    0.0000 C   0  0  0  0  0  0  0  0  0  0  0  0
   31.0800  -20.8600    0.0000 O   0  0  0  0  0  0  0  0  0  0  0  0
   29.8900  -20.1600    0.0000 C   0  0  0  0  0  0  0  0  0  0  0  0
   28.7000  -20.8600    0.0000 C   0  0  0  0  0  0  0  0  0  0  0  0
   28.0000  -22.0500    0.0000 C   0  0  0  0  0  0  0  0  0  0  0  0
   27.2300  -20.8600    0.0000 C   0  0  0  0  0  0  0  0  0  0  0  0
   33.4600  -22.2600    0.0000 N   0  0  0  0  0  0  0  0  0  0  0  0
   32.2476  -22.9600    0.0000 S   0  0  0  0  0  0  0  0  0  0  0  0
   31.0351  -23.6600    0.0000 C   0  0  0  0  0  0  0  0  0  0  0  0
   31.5476  -21.7476    0.0000 O   0  0  0  0  0  0  0  0  0  0  0  0
   32.9476  -24.1724    0.0000 O   0  0  0  0  0  0  0  0  0  0  0  0
  1  2  2  0     0  0
  2  3  1  0     0  0
  3  4  2  0     0  0
  4  5  1  0     0  0
  5  6  2  0     0  0
  1  6  1  0     0  0
  1  7  1  0     0  0
  2  8  1  0     0  0
  7  9  1  0     0  0
  9 10  1  0     0  0
  9 11  1  0     0  0
  8 12  1  0     0  0
 12 13  1  0     0  0
 14 13  1  0     0  0
 13 15  1  0     0  0
 15 14  1  0     0  0
  4 16  1  0     0  0
 16 17  1  0     0  0
 17 18  1  0     0  0
 16 19  1  0     0  0
 18 20  2  0     0  0
 20 21  1  0     0  0
 21 22  2  0     0  0
 22 23  1  0     0  0
 23 24  2  0     0  0
 18 24  1  0     0  0
 24 25  1  0     0  0
 20 26  1  0     0  0
 22 27  2  0     0  0
 19 28  1  0     0  0
 28 29  2  0     0  0
 28 30  1  0     0  0
 30 31  2  0     0  0
 31 32  1  0     0  0
 32 33  2  0     0  0
 33 34  1  0     0  0
 34 35  2  0     0  0
 30 35  1  0     0  0
 32 36  1  0     0  0
 36 37  1  0     0  0
 37 38  1  0     0  0
 39 38  1  0     0  0
 38 40  1  0     0  0
 40 39  1  0     0  0
 33 41  1  0     0  0
 41 42  1  0     0  0
 42 43  1  0     0  0
 42 44  2  0     0  0
 42 45  2  0     0  0
M  END
