 
 
 
 23 25  0  0  0  0  0  0  0  0999 V2000
    8.0500  -14.7700    0.0000 C   0  0  0  0  0  0  0  0  0  0  0  0
    8.0500  -16.1700    0.0000 C   0  0  0  0  0  0  0  0  0  0  0  0
    9.2624  -16.8700    0.0000 C   0  0  0  0  0  0  0  0  0  0  0  0
   10.4749  -16.1700    0.0000 C   0  0  0  0  0  0  0  0  0  0  0  0
   10.4749  -14.7700    0.0000 C   0  0  0  0  0  0  0  0  0  0  0  0
    9.2624  -14.0700    0.0000 C   0  0  0  0  0  0  0  0  0  0  0  0
   11.6873  -16.8700    0.0000 C   0  0  0  0  0  0  0  0  0  0  0  0
   12.8997  -16.1700    0.0000 C   0  0  0  0  0  0  0  0  0  0  0  0
   12.8997  -14.7700    0.0000 C   0  0  0  0  0  0  0  0  0  0  0  0
   11.6873  -14.0700    0.0000 N   0  0  0  0  0  0  0  0  0  0  0  0
   14.0973  -14.0785    0.0000 N   0  0  0  0  0  0  0  0  0  0  0  0
   15.2856  -14.7645    0.0000 C   0  0  0  0  0  0  0  0  0  0  0  0
   15.2857  -16.1698    0.0000 C   0  0  0  0  0  0  0  0  0  0  0  0
   16.4981  -16.8697    0.0000 C   0  0  0  0  0  0  0  0  0  0  0  0
   17.7105  -16.1696    0.0000 C   0  0  0  0  0  0  0  0  0  0  0  0
   17.7104  -14.7644    0.0000 C   0  0  0  0  0  0  0  0  0  0  0  0
   16.4980  -14.0645    0.0000 C   0  0  0  0  0  0  0  0  0  0  0  0
   18.9228  -16.8694    0.0000 O   0  0  0  0  0  0  0  0  0  0  0  0
   20.1177  -16.1792    0.0000 C   0  0  0  0  0  0  0  0  0  0  0  0
   21.3301  -15.4792    0.0000 F   0  0  0  0  0  0  0  0  0  0  0  0
   19.4177  -14.9668    0.0000 F   0  0  0  0  0  0  0  0  0  0  0  0
   20.8177  -17.3917    0.0000 F   0  0  0  0  0  0  0  0  0  0  0  0
    9.2624  -12.6702    0.0000 Cl  0  0  0  0  0  0  0  0  0  0  0  0
  1  2  2  0     0  0
  2  3  1  0     0  0
  3  4  2  0     0  0
  4  5  1  0     0  0
  5  6  2  0     0  0
  1  6  1  0     0  0
  4  7  1  0     0  0
  7  8  2  0     0  0
  8  9  1  0     0  0
  9 10  2  0     0  0
  5 10  1  0     0  0
  9 11  1  0     0  0
 11 12  1  0     0  0
 12 13  2  0     0  0
 13 14  1  0     0  0
 14 15  2  0     0  0
 15 16  1  0     0  0
 16 17  2  0     0  0
 12 17  1  0     0  0
 15 18  1  0     0  0
 18 19  1  0     0  0
 19 20  1  0     0  0
 19 21  1  0     0  0
 19 22  1  0     0  0
  6 23  1  0     0  0
M  END
