 
     RDKit          2D

 40 41  0  0  0  0  0  0  0  0999 V2000
   24.7586  -14.9811    0.0000 O   0  0  0  0  0  0  0  0  0  0  0  0
   23.5472  -14.2789    0.0000 C   0  0  0  0  0  0  0  0  0  0  0  0
   22.3357  -14.9811    0.0000 C   0  0  0  0  0  0  0  0  0  0  0  0
   21.1185  -14.2789    0.0000 C   0  0  0  0  0  0  0  0  0  0  0  0
   22.3357  -16.3798    0.0000 C   0  0  0  0  0  0  0  0  0  0  0  0
   19.9071  -14.9811    0.0000 C   0  0  0  0  0  0  0  0  0  0  0  0
   21.1185  -17.0821    0.0000 C   0  0  0  0  0  0  0  0  0  0  0  0
   19.9071  -16.3798    0.0000 C   0  0  0  0  0  0  0  0  0  0  0  0
   25.9887  -14.2735    0.0000 O   0  0  0  0  0  0  0  0  0  0  0  0
   27.1887  -14.9691    0.0000 C   0  0  0  0  0  0  0  0  0  0  0  0
   27.1865  -16.3797    0.0000 C   0  0  0  0  0  0  0  0  0  0  0  0
   25.9531  -17.0895    0.0000 C   0  0  0  0  0  0  0  0  0  0  0  0
   25.9512  -18.4895    0.0000 C   0  0  0  0  0  0  0  0  0  0  0  0
   27.1626  -19.1912    0.0000 C   0  0  0  0  0  0  0  0  0  0  0  0
   28.3960  -18.4814    0.0000 C   0  0  0  0  0  0  0  0  0  0  0  0
   28.3979  -17.0814    0.0000 C   0  0  0  0  0  0  0  0  0  0  0  0
   23.5472  -12.8803    0.0000 O   0  0  0  0  0  0  0  0  0  0  0  0
   28.3759  -14.2861    0.0000 O   0  0  0  0  0  0  0  0  0  0  0  0
   14.4200  -19.8100    0.0000 C   0  0  0  0  0  0  0  0  0  0  0  0
   14.4200  -21.2100    0.0000 C   0  0  0  0  0  0  0  0  0  0  0  0
   15.6324  -21.9100    0.0000 C   0  0  0  0  0  0  0  0  0  0  0  0
   16.8449  -21.2100    0.0000 C   0  0  0  0  0  0  0  0  0  0  0  0
   16.8449  -19.8100    0.0000 C   0  0  0  0  0  0  0  0  0  0  0  0
   15.6324  -19.1100    0.0000 C   0  0  0  0  0  0  0  0  0  0  0  0
   16.4540  -17.9930    0.0000 C   0  0  0  0  0  0  0  0  0  0  0  0
   14.6889  -18.0557    0.0000 C   0  0  0  0  0  0  0  0  0  0  0  0
   18.0760  -21.9210    0.0000 C   0  0  0  0  0  0  0  0  0  0  0  0
   18.0760  -19.0990    0.0000 C   0  0  0  0  0  0  0  0  0  0  0  0
   19.2812  -19.7947    0.0000 C   0  0  0  0  0  0  0  0  0  0  0  0
   20.4635  -19.1119    0.0000 C   0  0  0  0  0  0  0  0  0  0  0  0
   21.6575  -19.8012    0.0000 C   0  0  0  0  0  0  0  0  0  0  0  0
   20.4635  -17.7102    0.0000 C   0  0  0  0  0  0  0  0  0  0  0  0
   22.8454  -19.1152    0.0000 C   0  0  0  0  0  0  0  0  0  0  0  0
   24.0365  -19.8029    0.0000 C   0  0  0  0  0  0  0  0  0  0  0  0
   25.2259  -19.1161    0.0000 C   0  0  0  0  0  0  0  0  0  0  0  0
   26.4162  -19.8034    0.0000 C   0  0  0  0  0  0  0  0  0  0  0  0
   27.6061  -19.1163    0.0000 C   0  0  0  0  0  0  0  0  0  0  0  0
   28.7962  -19.8035    0.0000 O   0  0  0  0  0  0  0  0  0  0  0  0
   25.2260  -17.7102    0.0000 C   0  0  0  0  0  0  0  0  0  0  0  0
   27.6061  -17.7102    0.0000 O   0  0  0  0  0  0  0  0  0  0  0  0
  1  2  1  0
  2  3  1  0
  3  4  2  0
  3  5  1  0
  4  6  1  0
  5  7  2  0
  6  8  2  0
  7  8  1  0
  1  9  1  0
  9 10  1  0
 10 11  1  0
 11 12  2  0
 12 13  1  0
 13 14  2  0
 14 15  1  0
 15 16  2  0
 11 16  1  0
  2 17  2  0
 10 18  2  0
 19 20  1  0
 20 21  1  0
 21 22  1  0
 22 23  2  0
 23 24  1  0
 19 24  1  0
 24 25  1  0
 24 26  1  0
 22 27  1  0
 23 28  1  0
 28 29  2  0
 29 30  1  0
 30 31  2  0
 30 32  1  0
 31 33  1  0
 33 34  2  0
 34 35  1  0
 35 36  2  0
 36 37  1  0
 37 38  1  0
 35 39  1  0
 37 40  2  0
M  END
