 
 
 
 40 42  0  0  1  0  0  0  0  0999 V2000
   17.9152  -11.4069    0.0000 C   0  0  0  0  0  0  0  0  0  0  0  0
   17.9152  -12.8065    0.0000 C   0  0  0  0  0  0  0  0  0  0  0  0
   19.1048  -13.5064    0.0000 N   0  0  0  0  0  0  0  0  0  0  0  0
   20.2945  -12.8065    0.0000 N   0  0  0  0  0  0  0  0  0  0  0  0
   20.2945  -11.4069    0.0000 C   0  0  0  0  0  0  0  0  0  0  0  0
   19.1048  -10.7071    0.0000 C   0  0  0  0  0  0  0  0  0  0  0  0
   21.6242  -13.2264    0.0000 C   0  0  0  0  0  0  0  0  0  0  0  0
   22.4639  -12.1067    0.0000 C   0  0  0  0  0  0  0  0  0  0  0  0
   21.6242  -10.9171    0.0000 N   0  0  0  0  0  0  0  0  0  0  0  0
   22.1140  -14.5561    0.0000 C   0  0  0  0  0  0  0  0  0  0  0  0
   21.1343  -15.6058    0.0000 C   0  0  0  0  0  0  0  0  0  0  0  0
   21.6242  -16.9354    0.0000 C   0  0  0  0  0  0  0  0  0  0  0  0
   22.9538  -17.2154    0.0000 C   0  0  0  0  0  0  0  0  0  0  0  0
   23.8636  -16.1656    0.0000 C   0  0  0  0  0  0  0  0  0  0  0  0
   23.4437  -14.8360    0.0000 C   0  0  0  0  0  0  0  0  0  0  0  0
   23.3737  -18.5450    0.0000 O   0  0  0  0  0  0  0  0  0  0  0  0
   24.7733  -18.8249    0.0000 C   0  0  0  0  0  0  0  0  0  0  0  0
   25.1932  -20.1546    0.0000 C   0  0  0  0  0  0  0  0  0  0  0  0
   26.5928  -20.4345    0.0000 C   0  0  0  0  0  0  0  0  0  0  0  0
   24.2135  -21.2043    0.0000 N   0  0  0  0  0  0  0  0  0  0  0  0
   16.6555  -13.5064    0.0000 N   0  0  0  0  0  0  0  0  0  0  0  0
   15.4658  -12.8065    0.0000 C   0  0  0  0  0  0  0  0  0  0  0  0
   14.2762  -13.5064    0.0000 C   0  0  0  0  0  0  0  0  0  0  0  0
   15.4658  -11.4069    0.0000 C   0  0  0  0  0  0  0  0  0  0  0  0
   13.0865  -12.8065    0.0000 C   0  0  0  0  0  0  0  0  0  0  0  0
   11.8968  -13.5064    0.0000 C   0  0  0  0  0  0  0  0  0  0  0  0
   11.8968  -14.9060    0.0000 C   0  0  0  0  0  0  0  0  0  0  0  0
   13.0865  -15.6058    0.0000 C   0  0  0  0  0  0  0  0  0  0  0  0
   14.2762  -14.9060    0.0000 C   0  0  0  0  0  0  0  0  0  0  0  0
   10.6371  -12.8065    0.0000 F   0  0  0  0  0  0  0  0  0  0  0  0
   27.5800  -14.7000    0.0000 O   0  0  0  0  0  0  0  0  0  0  0  0
   28.7924  -15.4000    0.0000 C   0  0  0  0  0  0  0  0  0  0  0  0
   29.9879  -14.7096    0.0000 C   0  0  0  0  0  0  0  0  0  0  0  0
   28.7925  -16.7998    0.0000 O   0  0  0  0  0  0  0  0  0  0  0  0
   31.1753  -15.3951    0.0000 C   0  0  0  0  0  0  0  0  0  0  0  0
   32.3665  -14.7071    0.0000 C   0  0  0  0  0  0  0  0  0  0  0  0
   33.5560  -15.3938    0.0000 C   0  0  0  0  0  0  0  0  0  0  0  0
   34.7461  -14.7065    0.0000 C   0  0  0  0  0  0  0  0  0  0  0  0
   35.9362  -15.3935    0.0000 O   0  0  0  0  0  0  0  0  0  0  0  0
   34.7461  -13.3002    0.0000 O   0  0  0  0  0  0  0  0  0  0  0  0
  1  2  1  0     0  0
  2  3  2  0     0  0
  3  4  1  0     0  0
  4  5  1  0     0  0
  5  6  1  0     0  0
  1  6  2  0     0  0
  4  7  1  0     0  0
  7  8  2  0     0  0
  8  9  1  0     0  0
  5  9  2  0     0  0
  7 10  1  0     0  0
 10 11  2  0     0  0
 11 12  1  0     0  0
 12 13  2  0     0  0
 13 14  1  0     0  0
 14 15  2  0     0  0
 10 15  1  0     0  0
 13 16  1  0     0  0
 16 17  1  0     0  0
 17 18  1  0     0  0
 18 19  1  0     0  0
 18 20  1  1     0  0
  2 21  1  0     0  0
 21 22  1  0     0  0
 22 23  1  0     0  0
 22 24  1  1     0  0
 23 25  2  0     0  0
 25 26  1  0     0  0
 26 27  2  0     0  0
 27 28  1  0     0  0
 28 29  2  0     0  0
 23 29  1  0     0  0
 26 30  1  0     0  0
 31 32  1  0     0  0
 32 33  1  0     0  0
 32 34  2  0     0  0
 33 35  1  0     0  0
 35 36  1  0     0  0
 36 37  1  0     0  0
 37 38  1  0     0  0
 38 39  1  0     0  0
 38 40  2  0     0  0
M  END
