133083018
     RDKit          2D

252259  0  0  1  0  0  0  0  0999 V2000
   86.1384    7.5375    0.0000 O   0  0  0  0  0  0  0  0  0  0  0  0
   87.0045    8.0375    0.0000 O   0  0  0  0  0  0  0  0  0  0  0  0
   89.1148    5.9835    0.0000 O   0  0  0  0  0  0  0  0  0  0  0  0
   82.5404    6.5375    0.0000 O   0  0  0  0  0  0  0  0  0  0  0  0
   83.4064    5.0375    0.0000 O   0  0  0  0  0  0  0  0  0  0  0  0
   89.3227    5.0054    0.0000 O   0  0  0  0  0  0  0  0  0  0  0  0
   95.0306    8.1263    0.0000 O   0  0  0  0  0  0  0  0  0  0  0  0
   90.8975    1.7619    0.0000 O   0  0  0  0  0  0  0  0  0  0  0  0
   80.8083   10.5375    0.0000 O   0  0  0  0  0  0  0  0  0  0  0  0
   89.4112    0.4237    0.0000 O   0  0  0  0  0  0  0  0  0  0  0  0
   88.2523    1.7108    0.0000 O   0  0  0  0  0  0  0  0  0  0  0  0
   80.8083   13.5375    0.0000 O   0  0  0  0  0  0  0  0  0  0  0  0
   91.5124   -0.0150    0.0000 O   0  0  0  0  0  0  0  0  0  0  0  0
   94.4981   -2.0366    0.0000 O   0  0  0  0  0  0  0  0  0  0  0  0
   79.0763   15.5375    0.0000 O   0  0  0  0  0  0  0  0  0  0  0  0
   95.1672   -2.7798    0.0000 O   0  0  0  0  0  0  0  0  0  0  0  0
   97.1105    2.3341    0.0000 O   0  0  0  0  0  0  0  0  0  0  0  0
   77.3442   16.5375    0.0000 O   0  0  0  0  0  0  0  0  0  0  0  0
   96.8656   -5.9602    0.0000 O   0  0  0  0  0  0  0  0  0  0  0  0
   97.7926   -3.1071    0.0000 O   0  0  0  0  0  0  0  0  0  0  0  0
   96.1453   -2.5718    0.0000 O   0  0  0  0  0  0  0  0  0  0  0  0
   74.7461   17.0375    0.0000 O   0  0  0  0  0  0  0  0  0  0  0  0
   93.3686   -6.0649    0.0000 O   0  0  0  0  0  0  0  0  0  0  0  0
   97.9859   -7.5652    0.0000 O   0  0  0  0  0  0  0  0  0  0  0  0
   99.0879  -11.1209    0.0000 O   0  0  0  0  0  0  0  0  0  0  0  0
   72.1481   16.5375    0.0000 O   0  0  0  0  0  0  0  0  0  0  0  0
   97.2412  -14.3533    0.0000 O   0  0  0  0  0  0  0  0  0  0  0  0
   90.5196  -13.1471    0.0000 O   0  0  0  0  0  0  0  0  0  0  0  0
   93.6185  -15.2100    0.0000 O   0  0  0  0  0  0  0  0  0  0  0  0
   89.4684  -10.3399    0.0000 O   0  0  0  0  0  0  0  0  0  0  0  0
   69.5500   17.0375    0.0000 O   0  0  0  0  0  0  0  0  0  0  0  0
   95.2333  -17.4592    0.0000 O   0  0  0  0  0  0  0  0  0  0  0  0
   96.8489  -16.8348    0.0000 O   0  0  0  0  0  0  0  0  0  0  0  0
   66.9519   16.5375    0.0000 O   0  0  0  0  0  0  0  0  0  0  0  0
   14.9904   15.5375    0.0000 O   0  0  0  0  0  0  0  0  0  0  0  0
   15.8564   15.0375    0.0000 O   0  0  0  0  0  0  0  0  0  0  0  0
   17.5885   15.0375    0.0000 O   0  0  0  0  0  0  0  0  0  0  0  0
   19.3205   18.0375    0.0000 O   0  0  0  0  0  0  0  0  0  0  0  0
   64.3538   17.0375    0.0000 O   0  0  0  0  0  0  0  0  0  0  0  0
   22.7846   17.0375    0.0000 O   0  0  0  0  0  0  0  0  0  0  0  0
   61.7558   16.5375    0.0000 O   0  0  0  0  0  0  0  0  0  0  0  0
   25.3827   16.5375    0.0000 O   0  0  0  0  0  0  0  0  0  0  0  0
   59.1577   17.0375    0.0000 O   0  0  0  0  0  0  0  0  0  0  0  0
   27.9808   17.0375    0.0000 O   0  0  0  0  0  0  0  0  0  0  0  0
   30.5788   16.5375    0.0000 O   0  0  0  0  0  0  0  0  0  0  0  0
   56.5596   16.5375    0.0000 O   0  0  0  0  0  0  0  0  0  0  0  0
   33.1769   17.0375    0.0000 O   0  0  0  0  0  0  0  0  0  0  0  0
   53.9615   17.0375    0.0000 O   0  0  0  0  0  0  0  0  0  0  0  0
   35.7750   16.5375    0.0000 O   0  0  0  0  0  0  0  0  0  0  0  0
   51.3634   16.5375    0.0000 O   0  0  0  0  0  0  0  0  0  0  0  0
   38.3731   17.0375    0.0000 O   0  0  0  0  0  0  0  0  0  0  0  0
   40.9711   16.5375    0.0000 O   0  0  0  0  0  0  0  0  0  0  0  0
   48.7654   17.0375    0.0000 O   0  0  0  0  0  0  0  0  0  0  0  0
   43.5692   17.0375    0.0000 O   0  0  0  0  0  0  0  0  0  0  0  0
   46.1673   16.5375    0.0000 O   0  0  0  0  0  0  0  0  0  0  0  0
   87.8705    6.5375    0.0000 N   0  0  0  0  0  0  0  0  0  0  0  0
   89.6501    7.6308    0.0000 N   0  0  0  0  0  0  0  0  0  0  0  0
   85.1384    6.0375    0.0000 N   0  0  0  0  0  0  0  0  0  0  0  0
   91.0169    5.3655    0.0000 N   0  0  0  0  0  0  0  0  0  0  0  0
   91.4328    3.4092    0.0000 N   0  0  0  0  0  0  0  0  0  0  0  0
   82.5404   10.5375    0.0000 N   0  0  0  0  0  0  0  0  0  0  0  0
   92.7996    1.1439    0.0000 N   0  0  0  0  0  0  0  0  0  0  0  0
   93.6411    5.3517    0.0000 N   0  0  0  0  0  0  0  0  0  0  0  0
   92.8508   -1.5014    0.0000 N   0  0  0  0  0  0  0  0  0  0  0  0
   95.4530    5.5501    0.0000 N   0  0  0  0  0  0  0  0  0  0  0  0
   93.8801   -3.9387    0.0000 N   0  0  0  0  0  0  0  0  0  0  0  0
   95.2183   -5.4250    0.0000 N   0  0  0  0  0  0  0  0  0  0  0  0
   96.4786   -7.5548    0.0000 N   0  0  0  0  0  0  0  0  0  0  0  0
   92.6659   -7.3985    0.0000 N   0  0  0  0  0  0  0  0  0  0  0  0
   98.0665  -10.0122    0.0000 N   0  0  0  0  0  0  0  0  0  0  0  0
   97.3544  -12.8501    0.0000 N   0  0  0  0  0  0  0  0  0  0  0  0
   89.9811  -11.9944    0.0000 N   0  0  0  0  0  0  0  0  0  0  0  0
   92.0116  -13.3625    0.0000 N   0  0  0  0  0  0  0  0  0  0  0  0
   94.7943  -14.2667    0.0000 N   0  0  0  0  0  0  0  0  0  0  0  0
   99.9873  -14.7083    0.0000 N   0  0  0  0  0  0  0  0  0  0  0  0
  101.0560  -16.0716    0.0000 N   0  0  0  0  0  0  0  0  0  0  0  0
  101.7020  -14.4646    0.0000 N   0  0  0  0  0  0  0  0  0  0  0  0
   15.8564   17.0375    0.0000 N   0  0  0  0  0  0  0  0  0  0  0  0
   20.1865   16.5375    0.0000 N   0  0  0  0  0  0  0  0  0  0  0  0
   87.0045    5.0375    0.0000 C   0  0  0  0  0  0  0  0  0  0  0  0
   86.1384    4.5375    0.0000 C   0  0  0  0  0  0  0  0  0  0  0  0
   87.8705    4.5375    0.0000 C   0  0  0  0  0  0  0  0  0  0  0  0
   87.0045    6.0375    0.0000 C   0  0  0  0  0  0  0  0  0  0  0  0
   86.1384    3.5375    0.0000 C   0  0  0  0  0  0  0  0  0  0  0  0
   87.8705    3.5375    0.0000 C   0  0  0  0  0  0  0  0  0  0  0  0
   87.0045    3.0375    0.0000 C   0  0  0  0  0  0  0  0  0  0  0  0
   88.7365    8.0375    0.0000 C   0  0  0  0  0  0  0  0  0  0  0  0
   86.1384    6.5375    0.0000 C   0  0  0  0  0  0  0  0  0  0  0  0
   88.8410    9.0321    0.0000 C   0  0  0  0  0  0  0  0  0  0  0  0
   87.8705    7.5375    0.0000 C   0  0  0  0  0  0  0  0  0  0  0  0
   89.8192    9.2400    0.0000 C   0  0  0  0  0  0  0  0  0  0  0  0
   90.3192    8.3740    0.0000 C   0  0  0  0  0  0  0  0  0  0  0  0
   89.8580    6.6526    0.0000 C   0  0  0  0  0  0  0  0  0  0  0  0
   84.2724    6.5375    0.0000 C   0  0  0  0  0  0  0  0  0  0  0  0
   90.8090    6.3436    0.0000 C   0  0  0  0  0  0  0  0  0  0  0  0
   84.2724    7.5375    0.0000 C   0  0  0  0  0  0  0  0  0  0  0  0
   91.1180    7.2947    0.0000 C   0  0  0  0  0  0  0  0  0  0  0  0
   83.4064    8.0375    0.0000 C   0  0  0  0  0  0  0  0  0  0  0  0
   83.4064    6.0375    0.0000 C   0  0  0  0  0  0  0  0  0  0  0  0
   92.0962    7.5026    0.0000 C   0  0  0  0  0  0  0  0  0  0  0  0
   83.4064    9.0375    0.0000 C   0  0  0  0  0  0  0  0  0  0  0  0
   90.2738    4.6964    0.0000 C   0  0  0  0  0  0  0  0  0  0  0  0
   90.4817    3.7182    0.0000 C   0  0  0  0  0  0  0  0  0  0  0  0
   82.5404    9.5375    0.0000 C   0  0  0  0  0  0  0  0  0  0  0  0
   92.4052    8.4537    0.0000 C   0  0  0  0  0  0  0  0  0  0  0  0
   92.7653    6.7595    0.0000 C   0  0  0  0  0  0  0  0  0  0  0  0
   89.7386    3.0491    0.0000 C   0  0  0  0  0  0  0  0  0  0  0  0
   93.3834    8.6616    0.0000 C   0  0  0  0  0  0  0  0  0  0  0  0
   93.7435    6.9674    0.0000 C   0  0  0  0  0  0  0  0  0  0  0  0
   89.9465    2.0709    0.0000 C   0  0  0  0  0  0  0  0  0  0  0  0
   94.0525    7.9184    0.0000 C   0  0  0  0  0  0  0  0  0  0  0  0
   91.6407    2.4310    0.0000 C   0  0  0  0  0  0  0  0  0  0  0  0
   92.5917    2.1220    0.0000 C   0  0  0  0  0  0  0  0  0  0  0  0
   81.6743   11.0375    0.0000 C   0  0  0  0  0  0  0  0  0  0  0  0
   89.2033    1.4018    0.0000 C   0  0  0  0  0  0  0  0  0  0  0  0
   93.3349    2.7912    0.0000 C   0  0  0  0  0  0  0  0  0  0  0  0
   81.6743   12.0375    0.0000 C   0  0  0  0  0  0  0  0  0  0  0  0
   93.6439    3.7422    0.0000 C   0  0  0  0  0  0  0  0  0  0  0  0
   80.8083   12.5375    0.0000 C   0  0  0  0  0  0  0  0  0  0  0  0
   92.4906    0.1928    0.0000 C   0  0  0  0  0  0  0  0  0  0  0  0
   94.5896    4.0486    0.0000 C   0  0  0  0  0  0  0  0  0  0  0  0
   93.1598   -0.5503    0.0000 C   0  0  0  0  0  0  0  0  0  0  0  0
   93.0589    4.5459    0.0000 C   0  0  0  0  0  0  0  0  0  0  0  0
   94.5879    5.0486    0.0000 C   0  0  0  0  0  0  0  0  0  0  0  0
   94.1379   -0.3424    0.0000 C   0  0  0  0  0  0  0  0  0  0  0  0
   95.4565    3.5501    0.0000 C   0  0  0  0  0  0  0  0  0  0  0  0
   79.9423   14.0375    0.0000 C   0  0  0  0  0  0  0  0  0  0  0  0
   93.2109   -3.1956    0.0000 C   0  0  0  0  0  0  0  0  0  0  0  0
   93.5199   -2.2445    0.0000 C   0  0  0  0  0  0  0  0  0  0  0  0
   92.2327   -3.4035    0.0000 C   0  0  0  0  0  0  0  0  0  0  0  0
   94.8811    0.3267    0.0000 C   0  0  0  0  0  0  0  0  0  0  0  0
   96.3216    4.0516    0.0000 C   0  0  0  0  0  0  0  0  0  0  0  0
   96.3199    5.0516    0.0000 C   0  0  0  0  0  0  0  0  0  0  0  0
   79.9423   15.0375    0.0000 C   0  0  0  0  0  0  0  0  0  0  0  0
   92.4407   -4.3816    0.0000 C   0  0  0  0  0  0  0  0  0  0  0  0
   91.2546   -3.6114    0.0000 C   0  0  0  0  0  0  0  0  0  0  0  0
   92.0248   -2.4253    0.0000 C   0  0  0  0  0  0  0  0  0  0  0  0
   94.6731    1.3049    0.0000 C   0  0  0  0  0  0  0  0  0  0  0  0
   95.8321    0.0177    0.0000 C   0  0  0  0  0  0  0  0  0  0  0  0
   94.8582   -3.7308    0.0000 C   0  0  0  0  0  0  0  0  0  0  0  0
   95.4163    1.9740    0.0000 C   0  0  0  0  0  0  0  0  0  0  0  0
   96.5753    0.6868    0.0000 C   0  0  0  0  0  0  0  0  0  0  0  0
   95.5274   -4.4739    0.0000 C   0  0  0  0  0  0  0  0  0  0  0  0
   96.3673    1.6650    0.0000 C   0  0  0  0  0  0  0  0  0  0  0  0
   79.0763   16.5375    0.0000 C   0  0  0  0  0  0  0  0  0  0  0  0
   96.5054   -4.2660    0.0000 C   0  0  0  0  0  0  0  0  0  0  0  0
   78.2102   17.0375    0.0000 C   0  0  0  0  0  0  0  0  0  0  0  0
   95.8875   -6.1681    0.0000 C   0  0  0  0  0  0  0  0  0  0  0  0
   94.2402   -5.6329    0.0000 C   0  0  0  0  0  0  0  0  0  0  0  0
   96.8144   -3.3150    0.0000 C   0  0  0  0  0  0  0  0  0  0  0  0
   95.5784   -7.1192    0.0000 C   0  0  0  0  0  0  0  0  0  0  0  0
   94.5941   -6.9426    0.0000 C   0  0  0  0  0  0  0  0  0  0  0  0
   76.4782   17.0375    0.0000 C   0  0  0  0  0  0  0  0  0  0  0  0
   93.5987   -7.0380    0.0000 C   0  0  0  0  0  0  0  0  0  0  0  0
   97.2278   -8.2172    0.0000 C   0  0  0  0  0  0  0  0  0  0  0  0
   97.7705   -9.0571    0.0000 C   0  0  0  0  0  0  0  0  0  0  0  0
   75.6122   16.5375    0.0000 C   0  0  0  0  0  0  0  0  0  0  0  0
   98.6764   -8.6338    0.0000 C   0  0  0  0  0  0  0  0  0  0  0  0
   91.8650   -7.9973    0.0000 C   0  0  0  0  0  0  0  0  0  0  0  0
   91.2553   -8.7900    0.0000 C   0  0  0  0  0  0  0  0  0  0  0  0
   99.4960   -9.2068    0.0000 C   0  0  0  0  0  0  0  0  0  0  0  0
   98.0938  -11.0119    0.0000 C   0  0  0  0  0  0  0  0  0  0  0  0
   90.8821   -9.7177    0.0000 C   0  0  0  0  0  0  0  0  0  0  0  0
   97.8504  -11.9818    0.0000 C   0  0  0  0  0  0  0  0  0  0  0  0
   73.8801   16.5375    0.0000 C   0  0  0  0  0  0  0  0  0  0  0  0
   90.7731  -10.7118    0.0000 C   0  0  0  0  0  0  0  0  0  0  0  0
   98.7782  -12.3550    0.0000 C   0  0  0  0  0  0  0  0  0  0  0  0
   99.4096  -10.2030    0.0000 C   0  0  0  0  0  0  0  0  0  0  0  0
  100.4020   -8.7834    0.0000 C   0  0  0  0  0  0  0  0  0  0  0  0
   90.9362  -11.6984    0.0000 C   0  0  0  0  0  0  0  0  0  0  0  0
   73.0141   17.0375    0.0000 C   0  0  0  0  0  0  0  0  0  0  0  0
   98.9188  -13.3451    0.0000 C   0  0  0  0  0  0  0  0  0  0  0  0
  100.2290  -10.7760    0.0000 C   0  0  0  0  0  0  0  0  0  0  0  0
  101.2220   -9.3564    0.0000 C   0  0  0  0  0  0  0  0  0  0  0  0
   96.6424  -13.5524    0.0000 C   0  0  0  0  0  0  0  0  0  0  0  0
   95.7674  -14.0365    0.0000 C   0  0  0  0  0  0  0  0  0  0  0  0
   91.3596  -12.6044    0.0000 C   0  0  0  0  0  0  0  0  0  0  0  0
   92.8440  -13.9167    0.0000 C   0  0  0  0  0  0  0  0  0  0  0  0
   99.8466  -13.7183    0.0000 C   0  0  0  0  0  0  0  0  0  0  0  0
  101.1350  -10.3527    0.0000 C   0  0  0  0  0  0  0  0  0  0  0  0
   92.4084  -14.8168    0.0000 C   0  0  0  0  0  0  0  0  0  0  0  0
   96.1279  -14.9693    0.0000 C   0  0  0  0  0  0  0  0  0  0  0  0
   93.7951  -14.2257    0.0000 C   0  0  0  0  0  0  0  0  0  0  0  0
   71.2820   17.0375    0.0000 C   0  0  0  0  0  0  0  0  0  0  0  0
   95.5004  -15.7479    0.0000 C   0  0  0  0  0  0  0  0  0  0  0  0
   89.2471  -11.3151    0.0000 C   0  0  0  0  0  0  0  0  0  0  0  0
   91.4110  -14.8896    0.0000 C   0  0  0  0  0  0  0  0  0  0  0  0
   92.9701  -15.6441    0.0000 C   0  0  0  0  0  0  0  0  0  0  0  0
   70.4160   16.5375    0.0000 C   0  0  0  0  0  0  0  0  0  0  0  0
   88.2919  -11.6111    0.0000 C   0  0  0  0  0  0  0  0  0  0  0  0
  100.9150  -15.0815    0.0000 C   0  0  0  0  0  0  0  0  0  0  0  0
   95.8609  -16.6806    0.0000 C   0  0  0  0  0  0  0  0  0  0  0  0
    8.9282   17.0375    0.0000 C   0  0  0  0  0  0  0  0  0  0  0  0
    8.0622   16.5375    0.0000 C   0  0  0  0  0  0  0  0  0  0  0  0
    9.7942   16.5375    0.0000 C   0  0  0  0  0  0  0  0  0  0  0  0
    7.1962   17.0375    0.0000 C   0  0  0  0  0  0  0  0  0  0  0  0
   10.6603   17.0375    0.0000 C   0  0  0  0  0  0  0  0  0  0  0  0
    6.3301   16.5375    0.0000 C   0  0  0  0  0  0  0  0  0  0  0  0
   11.5263   16.5375    0.0000 C   0  0  0  0  0  0  0  0  0  0  0  0
    5.4641   17.0375    0.0000 C   0  0  0  0  0  0  0  0  0  0  0  0
   12.3923   17.0375    0.0000 C   0  0  0  0  0  0  0  0  0  0  0  0
    4.5981   16.5375    0.0000 C   0  0  0  0  0  0  0  0  0  0  0  0
   13.2583   16.5375    0.0000 C   0  0  0  0  0  0  0  0  0  0  0  0
    3.7320   17.0375    0.0000 C   0  0  0  0  0  0  0  0  0  0  0  0
   14.1244   17.0375    0.0000 C   0  0  0  0  0  0  0  0  0  0  0  0
    2.8660   16.5375    0.0000 C   0  0  0  0  0  0  0  0  0  0  0  0
   68.6840   16.5375    0.0000 C   0  0  0  0  0  0  0  0  0  0  0  0
   14.9904   16.5375    0.0000 C   0  0  0  0  0  0  0  0  0  0  0  0
    2.0000   17.0375    0.0000 C   0  0  0  0  0  0  0  0  0  0  0  0
   67.8179   17.0375    0.0000 C   0  0  0  0  0  0  0  0  0  0  0  0
   16.7224   16.5375    0.0000 C   0  0  0  0  0  0  0  0  0  0  0  0
   17.5885   17.0375    0.0000 C   0  0  0  0  0  0  0  0  0  0  0  0
   18.4545   16.5375    0.0000 C   0  0  0  0  0  0  0  0  0  0  0  0
   16.7224   15.5375    0.0000 C   0  0  0  0  0  0  0  0  0  0  0  0
   66.0859   17.0375    0.0000 C   0  0  0  0  0  0  0  0  0  0  0  0
   19.3205   17.0375    0.0000 C   0  0  0  0  0  0  0  0  0  0  0  0
   65.2199   16.5375    0.0000 C   0  0  0  0  0  0  0  0  0  0  0  0
   21.0526   17.0375    0.0000 C   0  0  0  0  0  0  0  0  0  0  0  0
   21.9186   16.5375    0.0000 C   0  0  0  0  0  0  0  0  0  0  0  0
   63.4878   16.5375    0.0000 C   0  0  0  0  0  0  0  0  0  0  0  0
   62.6218   17.0375    0.0000 C   0  0  0  0  0  0  0  0  0  0  0  0
   23.6506   16.5375    0.0000 C   0  0  0  0  0  0  0  0  0  0  0  0
   24.5167   17.0375    0.0000 C   0  0  0  0  0  0  0  0  0  0  0  0
   60.8897   17.0375    0.0000 C   0  0  0  0  0  0  0  0  0  0  0  0
   26.2487   17.0375    0.0000 C   0  0  0  0  0  0  0  0  0  0  0  0
   60.0237   16.5375    0.0000 C   0  0  0  0  0  0  0  0  0  0  0  0
   27.1147   16.5375    0.0000 C   0  0  0  0  0  0  0  0  0  0  0  0
   28.8468   16.5375    0.0000 C   0  0  0  0  0  0  0  0  0  0  0  0
   58.2917   16.5375    0.0000 C   0  0  0  0  0  0  0  0  0  0  0  0
   29.7128   17.0375    0.0000 C   0  0  0  0  0  0  0  0  0  0  0  0
   57.4256   17.0375    0.0000 C   0  0  0  0  0  0  0  0  0  0  0  0
   31.4449   17.0375    0.0000 C   0  0  0  0  0  0  0  0  0  0  0  0
   32.3109   16.5375    0.0000 C   0  0  0  0  0  0  0  0  0  0  0  0
   55.6936   17.0375    0.0000 C   0  0  0  0  0  0  0  0  0  0  0  0
   54.8275   16.5375    0.0000 C   0  0  0  0  0  0  0  0  0  0  0  0
   34.0429   16.5375    0.0000 C   0  0  0  0  0  0  0  0  0  0  0  0
   34.9090   17.0375    0.0000 C   0  0  0  0  0  0  0  0  0  0  0  0
   53.0955   16.5375    0.0000 C   0  0  0  0  0  0  0  0  0  0  0  0
   52.2295   17.0375    0.0000 C   0  0  0  0  0  0  0  0  0  0  0  0
   36.6410   17.0375    0.0000 C   0  0  0  0  0  0  0  0  0  0  0  0
   37.5070   16.5375    0.0000 C   0  0  0  0  0  0  0  0  0  0  0  0
   50.4974   17.0375    0.0000 C   0  0  0  0  0  0  0  0  0  0  0  0
   39.2391   16.5375    0.0000 C   0  0  0  0  0  0  0  0  0  0  0  0
   49.6314   16.5375    0.0000 C   0  0  0  0  0  0  0  0  0  0  0  0
   40.1051   17.0375    0.0000 C   0  0  0  0  0  0  0  0  0  0  0  0
   41.8372   17.0375    0.0000 C   0  0  0  0  0  0  0  0  0  0  0  0
   47.8993   16.5375    0.0000 C   0  0  0  0  0  0  0  0  0  0  0  0
   42.7032   16.5375    0.0000 C   0  0  0  0  0  0  0  0  0  0  0  0
   47.0333   17.0375    0.0000 C   0  0  0  0  0  0  0  0  0  0  0  0
   44.4352   16.5375    0.0000 C   0  0  0  0  0  0  0  0  0  0  0  0
   45.3013   17.0375    0.0000 C   0  0  0  0  0  0  0  0  0  0  0  0
  102.2770  -14.6961    0.0000 H   0  0  0  0  0  0  0  0  0  0  0  0
  1 88  2  0
  2 90  2  0
  3 93  2  0
  4 99  1  0
  5 99  2  0
  6102  2  0
  7111  1  0
  8112  2  0
  9114  2  0
 10115  1  0
 11115  2  0
 12119  1  0
 12127  1  0
 13120  2  0
 14129  2  0
 15134  1  0
 15145  1  0
 16140  2  0
 17144  1  0
 18147  1  0
 18153  1  0
 19148  2  0
 20150  1  0
 21150  2  0
 22157  1  0
 22165  1  0
 23154  2  0
 24155  2  0
 25162  2  0
 26171  1  0
 26184  1  0
 27175  2  0
 28177  2  0
 29183  2  0
 30186  2  0
 31189  1  0
 31207  1  0
 32192  1  0
 33192  2  0
 34210  1  0
 34215  1  0
 35208  2  0
 36214  1  0
 37214  2  0
 38216  2  0
 39217  1  0
 39220  1  0
 40219  1  0
 40222  1  0
 41221  1  0
 41224  1  0
 42223  1  0
 42225  1  0
 43226  1  0
 43229  1  0
 44227  1  0
 44228  1  0
 45230  1  0
 45232  1  0
 46231  1  0
 46234  1  0
 47233  1  0
 47236  1  0
 48235  1  0
 48238  1  0
 49237  1  0
 49240  1  0
 50239  1  0
 50242  1  0
 51241  1  0
 51243  1  0
 52245  1  0
 52246  1  0
 53244  1  0
 53247  1  0
 54248  1  0
 54250  1  0
 55249  1  0
 55251  1  0
 83 56  1  1
 56 90  1  0
 57 87  1  0
 57 92  1  0
 57 93  1  0
 58 88  1  0
 94 58  1  0
 95 59  1  0
 59102  1  0
103 60  1  0
 60112  1  0
 61104  1  0
 61114  1  0
113 62  1  0
 62120  1  0
 63123  1  0
 63124  1  0
122 64  1  0
 64129  1  0
 65124  2  0
 65133  1  0
128 66  1  1
 66140  1  0
143 67  1  0
 67148  1  0
 67149  1  0
 68151  1  0
 68155  1  0
 69154  1  0
 69159  1  0
 70156  1  0
 70162  1  0
 71164  1  0
 71175  1  0
170 72  1  1
 72186  1  0
 73177  1  0
 73178  1  0
 74176  1  0
 74183  1  0
 75179  1  0
 75191  1  0
 76191  1  0
 77191  2  0
 77252  1  0
 78208  1  0
211 78  1  0
 79216  1  0
 79218  1  0
 80 81  1  0
 80 82  1  0
 80 83  1  0
 81 84  1  0
 82 85  1  0
 83 88  1  0
 84 86  1  0
 85 86  1  0
 87 89  1  0
 87 90  1  6
 89 91  1  0
 91 92  1  0
 93 95  1  0
 94 96  1  6
 94 99  1  0
 95 97  1  6
 96 98  1  0
 97100  1  0
 98101  1  0
100105  2  0
100106  1  0
101104  1  0
102103  1  0
103107  1  1
105108  1  0
106109  2  0
107110  1  0
108111  2  0
109111  1  0
110115  1  0
112113  1  0
113116  1  6
114117  1  0
116118  1  0
117119  1  0
118121  1  0
118123  2  0
120122  1  0
121124  1  0
121126  2  0
122125  1  6
125131  1  0
126132  1  0
127134  1  0
128129  1  0
128130  1  0
130135  1  0
130136  1  0
130137  1  0
131138  2  0
131139  1  0
132133  2  0
138141  1  0
139142  2  0
140143  1  0
141144  2  0
142144  1  0
143146  1  6
145147  1  0
146150  1  0
151148  1  1
151152  1  0
152154  1  0
153157  1  0
155156  1  0
156158  1  6
158161  1  0
159160  1  0
160163  1  0
161168  2  0
161169  1  0
162164  1  0
163166  1  0
164167  1  6
165171  1  0
166170  1  0
167172  1  0
168173  1  0
169174  2  0
170177  1  0
172179  1  0
173180  2  0
174180  1  0
175176  1  0
176182  1  6
178181  1  6
178183  1  0
181187  1  0
181188  1  0
182185  1  0
184189  1  0
185192  1  0
186190  1  0
193194  1  0
193195  1  0
194196  1  0
195197  1  0
196198  1  0
197199  1  0
198200  1  0
199201  1  0
200202  1  0
201203  1  0
202204  1  0
203205  1  0
204206  1  0
205208  1  0
206209  1  0
207210  1  0
211212  1  1
211214  1  0
212213  1  0
213216  1  0
215217  1  0
218219  1  0
220221  1  0
222223  1  0
224226  1  0
225227  1  0
228230  1  0
229231  1  0
232233  1  0
234235  1  0
236237  1  0
238239  1  0
240241  1  0
242244  1  0
243245  1  0
246248  1  0
247249  1  0
250251  1  0
M  END
