 
 
 
 30 35  0  0  0  0  0  0  0  0999 V2000
   13.3000  -16.9400    0.0000 C   0  0  0  0  0  0  0  0  0  0  0  0
   13.3000  -18.3400    0.0000 C   0  0  0  0  0  0  0  0  0  0  0  0
   14.5124  -19.0400    0.0000 C   0  0  0  0  0  0  0  0  0  0  0  0
   15.7249  -18.3400    0.0000 C   0  0  0  0  0  0  0  0  0  0  0  0
   15.7249  -16.9400    0.0000 C   0  0  0  0  0  0  0  0  0  0  0  0
   14.5124  -16.2400    0.0000 C   0  0  0  0  0  0  0  0  0  0  0  0
   11.9685  -16.5074    0.0000 C   0  0  0  0  0  0  0  0  0  0  0  0
   11.1456  -17.6400    0.0000 C   0  0  0  0  0  0  0  0  0  0  0  0
   11.9685  -18.7726    0.0000 N   0  0  0  0  0  0  0  0  0  0  0  0
   17.0564  -18.7726    0.0000 O   0  0  0  0  0  0  0  0  0  0  0  0
   17.8793  -17.6400    0.0000 C   0  0  0  0  0  0  0  0  0  0  0  0
   17.0564  -16.5074    0.0000 O   0  0  0  0  0  0  0  0  0  0  0  0
   11.5397  -15.1878    0.0000 C   0  0  0  0  0  0  0  0  0  0  0  0
   12.3650  -14.0517    0.0000 C   0  0  0  0  0  0  0  0  0  0  0  0
   11.5396  -12.9157    0.0000 N   0  0  0  0  0  0  0  0  0  0  0  0
   10.2042  -13.3497    0.0000 C   0  0  0  0  0  0  0  0  0  0  0  0
   10.2042  -14.7539    0.0000 C   0  0  0  0  0  0  0  0  0  0  0  0
   13.7899  -14.0513    0.0000 O   0  0  0  0  0  0  0  0  0  0  0  0
    9.0915  -12.5415    0.0000 O   0  0  0  0  0  0  0  0  0  0  0  0
    9.0745  -15.5748    0.0000 C   0  0  0  0  0  0  0  0  0  0  0  0
    7.7565  -15.1463    0.0000 C   0  0  0  0  0  0  0  0  0  0  0  0
    6.9417  -16.2673    0.0000 C   0  0  0  0  0  0  0  0  0  0  0  0
    7.7560  -17.3887    0.0000 O   0  0  0  0  0  0  0  0  0  0  0  0
    9.0742  -16.9607    0.0000 C   0  0  0  0  0  0  0  0  0  0  0  0
    7.1874  -13.8672    0.0000 C   0  0  0  0  0  0  0  0  0  0  0  0
    5.7951  -13.7205    0.0000 C   0  0  0  0  0  0  0  0  0  0  0  0
    4.9802  -14.8416    0.0000 C   0  0  0  0  0  0  0  0  0  0  0  0
    5.5494  -16.1207    0.0000 C   0  0  0  0  0  0  0  0  0  0  0  0
    5.2282  -12.4466    0.0000 F   0  0  0  0  0  0  0  0  0  0  0  0
   11.5397  -20.0922    0.0000 C   0  0  0  0  0  0  0  0  0  0  0  0
  1  2  2  0     0  0
  2  3  1  0     0  0
  3  4  2  0     0  0
  4  5  1  0     0  0
  5  6  2  0     0  0
  1  6  1  0     0  0
  1  7  1  0     0  0
  7  8  2  0     0  0
  8  9  1  0     0  0
  2  9  1  0     0  0
  4 10  1  0     0  0
 10 11  1  0     0  0
 11 12  1  0     0  0
  5 12  1  0     0  0
  7 13  1  0     0  0
 13 14  1  0     0  0
 14 15  1  0     0  0
 15 16  1  0     0  0
 16 17  1  0     0  0
 13 17  2  0     0  0
 14 18  2  0     0  0
 16 19  2  0     0  0
 17 20  1  0     0  0
 20 21  1  0     0  0
 21 22  1  0     0  0
 22 23  1  0     0  0
 23 24  1  0     0  0
 20 24  2  0     0  0
 21 25  2  0     0  0
 25 26  1  0     0  0
 26 27  2  0     0  0
 27 28  1  0     0  0
 22 28  2  0     0  0
 26 29  1  0     0  0
  9 30  1  0     0  0
M  END
