 
 
 
 36 39  0  0  1  0  0  0  0  0999 V2000
   15.1200  -14.8400    0.0000 C   0  0  0  0  0  0  0  0  0  0  0  0
   15.1200  -16.2400    0.0000 C   0  0  0  0  0  0  0  0  0  0  0  0
   16.3324  -16.9400    0.0000 C   0  0  0  0  0  0  0  0  0  0  0  0
   17.5449  -16.2400    0.0000 C   0  0  0  0  0  0  0  0  0  0  0  0
   17.5449  -14.8400    0.0000 C   0  0  0  0  0  0  0  0  0  0  0  0
   16.3324  -14.1400    0.0000 C   0  0  0  0  0  0  0  0  0  0  0  0
   18.7760  -16.9510    0.0000 N   0  0  0  0  0  0  0  0  0  0  0  0
   19.9812  -16.2553    0.0000 C   0  0  0  0  0  0  0  0  0  0  0  0
   21.1635  -16.9381    0.0000 N   0  0  0  0  0  0  0  0  0  0  0  0
   22.3760  -16.2383    0.0000 C   0  0  0  0  0  0  0  0  0  0  0  0
   22.3762  -14.8383    0.0000 N   0  0  0  0  0  0  0  0  0  0  0  0
   21.1938  -14.1555    0.0000 C   0  0  0  0  0  0  0  0  0  0  0  0
   19.9813  -14.8553    0.0000 N   0  0  0  0  0  0  0  0  0  0  0  0
   23.6056  -14.1284    0.0000 C   0  0  0  0  0  0  0  0  0  0  0  0
   24.8113  -14.8245    0.0000 C   0  0  0  0  0  0  0  0  0  0  0  0
   25.9935  -14.1419    0.0000 C   0  0  0  0  0  0  0  0  0  0  0  0
   27.1874  -14.8314    0.0000 O   0  0  0  0  0  0  0  0  0  0  0  0
   25.9936  -12.7402    0.0000 O   0  0  0  0  0  0  0  0  0  0  0  0
   24.8116  -16.2396    0.0000 C   0  0  0  0  0  0  0  0  0  0  0  0
   21.1938  -12.7401    0.0000 O   0  0  0  0  0  0  0  0  0  0  0  0
   23.6070  -16.9493    0.0000 O   0  0  0  0  0  0  0  0  0  0  0  0
   21.1634  -18.3398    0.0000 C   0  0  0  0  0  0  0  0  0  0  0  0
   22.3582  -19.0299    0.0000 C   0  0  0  0  0  0  0  0  0  0  0  0
   22.3582  -20.4397    0.0000 C   0  0  0  0  0  0  0  0  0  0  0  0
   23.5707  -21.1397    0.0000 C   0  0  0  0  0  0  0  0  0  0  0  0
   24.7831  -20.4397    0.0000 C   0  0  0  0  0  0  0  0  0  0  0  0
   24.7831  -19.0299    0.0000 C   0  0  0  0  0  0  0  0  0  0  0  0
   23.5707  -18.3299    0.0000 C   0  0  0  0  0  0  0  0  0  0  0  0
   25.9933  -21.1385    0.0000 Cl  0  0  0  0  0  0  0  0  0  0  0  0
   13.9076  -14.1400    0.0000 O   0  0  0  0  0  0  0  0  0  0  0  0
   12.7121  -14.8304    0.0000 C   0  0  0  0  0  0  0  0  0  0  0  0
   11.5247  -14.1449    0.0000 N   0  0  0  0  0  0  0  0  0  0  0  0
   10.3123  -14.8450    0.0000 C   0  0  0  0  0  0  0  0  0  0  0  0
   10.3124  -16.2450    0.0000 C   0  0  0  0  0  0  0  0  0  0  0  0
   11.4997  -16.9304    0.0000 C   0  0  0  0  0  0  0  0  0  0  0  0
   12.7121  -16.2304    0.0000 C   0  0  0  0  0  0  0  0  0  0  0  0
  1  2  2  0     0  0
  2  3  1  0     0  0
  3  4  2  0     0  0
  4  5  1  0     0  0
  5  6  2  0     0  0
  1  6  1  0     0  0
  4  7  1  0     0  0
  7  8  2  0     0  0
  8  9  1  0     0  0
  9 10  1  0     0  0
 10 11  1  0     0  0
 11 12  1  0     0  0
 12 13  1  0     0  0
  8 13  1  0     0  0
 11 14  1  0     0  0
 14 15  1  0     0  0
 15 16  1  0     0  0
 16 17  1  0     0  0
 16 18  2  0     0  0
 15 19  1  1     0  0
 12 20  2  0     0  0
 10 21  2  0     0  0
  9 22  1  0     0  0
 22 23  1  0     0  0
 23 24  2  0     0  0
 24 25  1  0     0  0
 25 26  2  0     0  0
 26 27  1  0     0  0
 27 28  2  0     0  0
 23 28  1  0     0  0
 26 29  1  0     0  0
  1 30  1  0     0  0
 30 31  1  0     0  0
 31 32  2  0     0  0
 32 33  1  0     0  0
 33 34  2  0     0  0
 34 35  1  0     0  0
 35 36  2  0     0  0
 31 36  1  0     0  0
M  END
