 
 
 
 29 32  0  0  0  0  0  0  0  0999 V2000
    7.8400  -14.9100    0.0000 C   0  0  0  0  0  0  0  0  0  0  0  0
    7.8400  -16.3100    0.0000 C   0  0  0  0  0  0  0  0  0  0  0  0
    9.0524  -17.0100    0.0000 N   0  0  0  0  0  0  0  0  0  0  0  0
   10.2649  -16.3100    0.0000 C   0  0  0  0  0  0  0  0  0  0  0  0
   10.2649  -14.9100    0.0000 C   0  0  0  0  0  0  0  0  0  0  0  0
    9.0524  -14.2100    0.0000 N   0  0  0  0  0  0  0  0  0  0  0  0
   11.4773  -17.0100    0.0000 C   0  0  0  0  0  0  0  0  0  0  0  0
   12.6897  -16.3100    0.0000 N   0  0  0  0  0  0  0  0  0  0  0  0
   12.6897  -14.9100    0.0000 N   0  0  0  0  0  0  0  0  0  0  0  0
   11.4773  -14.2100    0.0000 C   0  0  0  0  0  0  0  0  0  0  0  0
   11.4773  -18.4100    0.0000 O   0  0  0  0  0  0  0  0  0  0  0  0
   11.4773  -12.8100    0.0000 C   0  0  0  0  0  0  0  0  0  0  0  0
   12.6918  -12.1088    0.0000 C   0  0  0  0  0  0  0  0  0  0  0  0
   13.8883  -12.7998    0.0000 O   0  0  0  0  0  0  0  0  0  0  0  0
   12.6918  -10.7102    0.0000 O   0  0  0  0  0  0  0  0  0  0  0  0
   13.8873  -17.0015    0.0000 C   0  0  0  0  0  0  0  0  0  0  0  0
   15.0756  -16.3155    0.0000 C   0  0  0  0  0  0  0  0  0  0  0  0
   16.3311  -16.8746    0.0000 S   0  0  0  0  0  0  0  0  0  0  0  0
   17.2508  -15.8532    0.0000 C   0  0  0  0  0  0  0  0  0  0  0  0
   16.5637  -14.6629    0.0000 C   0  0  0  0  0  0  0  0  0  0  0  0
   15.2193  -14.9486    0.0000 N   0  0  0  0  0  0  0  0  0  0  0  0
   18.6508  -15.8533    0.0000 C   0  0  0  0  0  0  0  0  0  0  0  0
   19.3509  -14.6410    0.0000 C   0  0  0  0  0  0  0  0  0  0  0  0
   18.6638  -13.4506    0.0000 C   0  0  0  0  0  0  0  0  0  0  0  0
   17.2638  -13.4505    0.0000 C   0  0  0  0  0  0  0  0  0  0  0  0
   19.3748  -12.2189    0.0000 C   0  0  0  0  0  0  0  0  0  0  0  0
   20.0748  -11.0065    0.0000 F   0  0  0  0  0  0  0  0  0  0  0  0
   18.1623  -11.5189    0.0000 F   0  0  0  0  0  0  0  0  0  0  0  0
   20.5872  -12.9189    0.0000 F   0  0  0  0  0  0  0  0  0  0  0  0
  1  2  2  0     0  0
  2  3  1  0     0  0
  3  4  2  0     0  0
  4  5  1  0     0  0
  5  6  2  0     0  0
  1  6  1  0     0  0
  4  7  1  0     0  0
  7  8  1  0     0  0
  8  9  1  0     0  0
  9 10  2  0     0  0
  5 10  1  0     0  0
  7 11  2  0     0  0
 10 12  1  0     0  0
 12 13  1  0     0  0
 13 14  1  0     0  0
 13 15  2  0     0  0
  8 16  1  0     0  0
 16 17  1  0     0  0
 17 18  1  0     0  0
 18 19  1  0     0  0
 19 20  1  0     0  0
 20 21  1  0     0  0
 17 21  2  0     0  0
 19 22  2  0     0  0
 22 23  1  0     0  0
 23 24  2  0     0  0
 24 25  1  0     0  0
 20 25  2  0     0  0
 24 26  1  0     0  0
 26 27  1  0     0  0
 26 28  1  0     0  0
 26 29  1  0     0  0
M  END
