 
 
 
 29 32  0  0  1  0  0  0  0  0999 V2000
   17.9200  -16.3100    0.0000 C   0  0  1  0  0  0  0  0  0  0  0  0
   18.6200  -15.3300    0.0000 C   0  0  2  0  0  0  0  0  0  0  0  0
   18.9000  -17.0800    0.0000 C   0  0  0  0  0  0  0  0  0  0  0  0
   19.8100  -16.0300    0.0000 C   0  0  2  0  0  0  0  0  0  0  0  0
   20.5800  -15.1900    0.0000 C   0  0  2  0  0  0  0  0  0  0  0  0
   21.6300  -16.0300    0.0000 C   0  0  0  0  0  0  0  0  0  0  0  0
   21.0000  -13.8600    0.0000 C   0  0  0  0  0  0  0  0  0  0  0  0
   14.8400  -15.6100    0.0000 C   0  0  0  0  0  0  0  0  0  0  0  0
   15.9600  -17.2200    0.0000 N   0  0  0  0  0  0  0  0  0  0  0  0
   14.8400  -16.8000    0.0000 C   0  0  0  0  0  0  0  0  0  0  0  0
   13.7900  -14.9800    0.0000 C   0  0  0  0  0  0  0  0  0  0  0  0
   13.7900  -17.4300    0.0000 C   0  0  0  0  0  0  0  0  0  0  0  0
   12.7400  -15.6100    0.0000 C   0  0  0  0  0  0  0  0  0  0  0  0
   12.7400  -16.8000    0.0000 C   0  0  0  0  0  0  0  0  0  0  0  0
   16.7300  -16.2400    0.0000 C   0  0  0  0  0  0  0  0  0  0  0  0
   16.0300  -15.2600    0.0000 C   0  0  0  0  0  0  0  0  0  0  0  0
   16.3800  -14.0700    0.0000 C   0  0  0  0  0  0  0  0  0  0  0  0
   17.5000  -13.5800    0.0000 C   0  0  0  0  0  0  0  0  0  0  0  0
   18.5500  -14.2100    0.0000 N   0  0  1  0  0  0  0  0  0  0  0  0
   19.3900  -12.5300    0.0000 C   0  0  0  0  0  0  0  0  0  0  0  0
   17.5700  -17.6400    0.0000 C   0  0  0  0  0  0  0  0  0  0  0  0
   18.5500  -18.5500    0.0000 O   0  0  0  0  0  0  0  0  0  0  0  0
   18.1300  -19.8800    0.0000 C   0  0  0  0  0  0  0  0  0  0  0  0
   16.7300  -18.6200    0.0000 O   0  0  0  0  0  0  0  0  0  0  0  0
   17.4300  -15.1200    0.0000 H   0  0  0  0  0  0  0  0  0  0  0  0
   22.1900  -13.1600    0.0000 C   0  0  0  0  0  0  0  0  0  0  0  0
   23.3800  -13.8600    0.0000 O   0  0  0  0  0  0  0  0  0  0  0  0
   24.5700  -13.1600    0.0000 C   0  0  0  0  0  0  0  0  0  0  0  0
   24.4300  -19.2500    0.0000 Cl  0  0  0  0  0  0  0  0  0  0  0  0
  3  4  1  0     0  0
  5  6  1  0     0  0
  1  2  1  0     0  0
  1  3  1  0     0  0
  2  5  1  0     0  0
 16  8  1  0     0  0
 15  9  1  0     0  0
  8 10  2  0     0  0
  8 11  1  0     0  0
 10 12  1  0     0  0
 11 13  2  0     0  0
 12 14  2  0     0  0
  9 10  1  0     0  0
 13 14  1  0     0  0
 15 16  2  0     0  0
 16 17  1  0     0  0
 15  1  1  0     0  0
 17 18  1  0     0  0
 18 19  1  0     0  0
  2 19  1  0     0  0
 19 20  1  1     0  0
  1 21  1  6     0  0
 21 22  1  0     0  0
 22 23  1  0     0  0
 21 24  2  0     0  0
  4 20  1  1     0  0
  4  6  1  0     0  0
  5  7  1  1     0  0
  2 25  1  6     0  0
 26 27  1  0     0  0
 26  7  1  0     0  0
 27 28  1  0     0  0
M  END
