169490697
     RDKit          2D

256259  0  0  1  0  0  0  0  0999 V2000
   14.0142   16.3054    0.0000 Na  0  0  0  0  0 15  0  0  0  0  0  0
   25.5381   16.7512    0.0000 Na  0  0  0  0  0 15  0  0  0  0  0  0
    5.1394    2.4803    0.0000 Na  0  0  0  0  0 15  0  0  0  0  0  0
   21.5235   26.0893    0.0000 Na  0  0  0  0  0 15  0  0  0  0  0  0
   22.6032   21.6358    0.0000 O   0  0  0  0  0  0  0  0  0  0  0  0
   23.0182   20.7260    0.0000 O   0  0  0  0  0  0  0  0  0  0  0  0
   20.7721   18.8214    0.0000 O   0  0  0  0  0  0  0  0  0  0  0  0
   21.9385   25.1795    0.0000 O   0  0  0  0  0  0  0  0  0  0  0  0
   20.3627   24.4607    0.0000 O   0  0  0  0  0  0  0  0  0  0  0  0
   20.1721   15.2661    0.0000 O   0  0  0  0  0  0  0  0  0  0  0  0
   17.5948   20.2015    0.0000 O   0  0  0  0  0  0  0  0  0  0  0  0
   22.9510   12.9688    0.0000 O   0  0  0  0  0  0  0  0  0  0  0  0
   25.7549   23.0735    0.0000 O   0  0  0  0  0  0  0  0  0  0  0  0
   24.5446   16.6376    0.0000 O   0  0  0  0  0  0  0  0  0  0  0  0
   24.7413   14.9168    0.0000 O   0  0  0  0  0  0  0  0  0  0  0  0
   28.5758   21.0630    0.0000 O   0  0  0  0  0  0  0  0  0  0  0  0
   20.7622   10.1036    0.0000 O   0  0  0  0  0  0  0  0  0  0  0  0
   17.1865   10.5664    0.0000 O   0  0  0  0  0  0  0  0  0  0  0  0
   30.4013   19.1479    0.0000 O   0  0  0  0  0  0  0  0  0  0  0  0
   15.7996   13.8946    0.0000 O   0  0  0  0  0  0  0  0  0  0  0  0
   21.1557    6.6619    0.0000 O   0  0  0  0  0  0  0  0  0  0  0  0
   32.8072   18.0472    0.0000 O   0  0  0  0  0  0  0  0  0  0  0  0
   12.4206   12.6366    0.0000 O   0  0  0  0  0  0  0  0  0  0  0  0
   13.6158   15.3882    0.0000 O   0  0  0  0  0  0  0  0  0  0  0  0
   15.2044   14.6982    0.0000 O   0  0  0  0  0  0  0  0  0  0  0  0
   34.6327   16.1321    0.0000 O   0  0  0  0  0  0  0  0  0  0  0  0
   14.9712   10.2420    0.0000 O   0  0  0  0  0  0  0  0  0  0  0  0
   10.5182   12.1762    0.0000 O   0  0  0  0  0  0  0  0  0  0  0  0
    7.3375   10.2420    0.0000 O   0  0  0  0  0  0  0  0  0  0  0  0
   37.0386   15.0313    0.0000 O   0  0  0  0  0  0  0  0  0  0  0  0
    6.5801    6.5972    0.0000 O   0  0  0  0  0  0  0  0  0  0  0  0
   12.4149    3.0491    0.0000 O   0  0  0  0  0  0  0  0  0  0  0  0
    8.7269    3.5560    0.0000 O   0  0  0  0  0  0  0  0  0  0  0  0
   15.0618    4.4559    0.0000 O   0  0  0  0  0  0  0  0  0  0  0  0
   38.8641   13.1163    0.0000 O   0  0  0  0  0  0  0  0  0  0  0  0
    6.0273    2.9404    0.0000 O   0  0  0  0  0  0  0  0  0  0  0  0
    5.2304    4.4782    0.0000 O   0  0  0  0  0  0  0  0  0  0  0  0
   41.2700   12.0155    0.0000 O   0  0  0  0  0  0  0  0  0  0  0  0
   84.1646  -17.3283    0.0000 O   0  0  0  0  0  0  0  0  0  0  0  0
   83.7495  -16.4185    0.0000 O   0  0  0  0  0  0  0  0  0  0  0  0
   82.3391  -15.4132    0.0000 O   0  0  0  0  0  0  0  0  0  0  0  0
   79.1874  -16.8510    0.0000 O   0  0  0  0  0  0  0  0  0  0  0  0
   43.0956   10.1005    0.0000 O   0  0  0  0  0  0  0  0  0  0  0  0
   76.9469  -14.0261    0.0000 O   0  0  0  0  0  0  0  0  0  0  0  0
   45.5015    8.9997    0.0000 O   0  0  0  0  0  0  0  0  0  0  0  0
   75.1213  -12.1110    0.0000 O   0  0  0  0  0  0  0  0  0  0  0  0
   47.3270    7.0846    0.0000 O   0  0  0  0  0  0  0  0  0  0  0  0
   72.7154  -11.0103    0.0000 O   0  0  0  0  0  0  0  0  0  0  0  0
   70.8899   -9.0952    0.0000 O   0  0  0  0  0  0  0  0  0  0  0  0
   49.7329    5.9839    0.0000 O   0  0  0  0  0  0  0  0  0  0  0  0
   68.4840   -7.9944    0.0000 O   0  0  0  0  0  0  0  0  0  0  0  0
   51.5584    4.0688    0.0000 O   0  0  0  0  0  0  0  0  0  0  0  0
   66.6585   -6.0794    0.0000 O   0  0  0  0  0  0  0  0  0  0  0  0
   53.9643    2.9681    0.0000 O   0  0  0  0  0  0  0  0  0  0  0  0
   64.2526   -4.9786    0.0000 O   0  0  0  0  0  0  0  0  0  0  0  0
   62.4271   -3.0636    0.0000 O   0  0  0  0  0  0  0  0  0  0  0  0
   55.7898    1.0530    0.0000 O   0  0  0  0  0  0  0  0  0  0  0  0
   60.0212   -1.9628    0.0000 O   0  0  0  0  0  0  0  0  0  0  0  0
   58.1957   -0.0477    0.0000 O   0  0  0  0  0  0  0  0  0  0  0  0
   21.4424   20.0071    0.0000 N   0  0  0  0  0  0  0  0  0  0  0  0
   22.3608   18.1313    0.0000 N   0  0  0  0  0  0  0  0  0  0  0  0
   21.1927   22.6411    0.0000 N   0  0  0  0  0  0  0  0  0  0  0  0
   21.5640   16.2969    0.0000 N   0  0  0  0  0  0  0  0  0  0  0  0
   21.3623   13.6588    0.0000 N   0  0  0  0  0  0  0  0  0  0  0  0
   25.5895   21.3494    0.0000 N   0  0  0  0  0  0  0  0  0  0  0  0
   20.5655   11.8244    0.0000 N   0  0  0  0  0  0  0  0  0  0  0  0
   24.6108   11.9185    0.0000 N   0  0  0  0  0  0  0  0  0  0  0  0
   18.5785   11.5972    0.0000 N   0  0  0  0  0  0  0  0  0  0  0  0
   25.5434   10.3523    0.0000 N   0  0  0  0  0  0  0  0  0  0  0  0
   15.9963   12.1737    0.0000 N   0  0  0  0  0  0  0  0  0  0  0  0
   14.0092   11.9466    0.0000 N   0  0  0  0  0  0  0  0  0  0  0  0
   11.6544   11.1856    0.0000 N   0  0  0  0  0  0  0  0  0  0  0  0
   14.6143    8.7774    0.0000 N   0  0  0  0  0  0  0  0  0  0  0  0
    8.8370   10.3962    0.0000 N   0  0  0  0  0  0  0  0  0  0  0  0
    7.4910    7.7984    0.0000 N   0  0  0  0  0  0  0  0  0  0  0  0
   13.5819    3.5560    0.0000 N   0  0  0  0  0  0  0  0  0  0  0  0
   11.1544    3.8758    0.0000 N   0  0  0  0  0  0  0  0  0  0  0  0
    8.4708    5.0415    0.0000 N   0  0  0  0  0  0  0  0  0  0  0  0
    4.2876    8.1500    0.0000 N   0  0  0  0  0  0  0  0  0  0  0  0
    2.5842    7.8364    0.0000 N   0  0  0  0  0  0  0  0  0  0  0  0
    3.1642    9.4684    0.0000 N   0  0  0  0  0  0  0  0  0  0  0  0
   82.5887  -18.0472    0.0000 N   0  0  0  0  0  0  0  0  0  0  0  0
   79.3528  -15.1268    0.0000 N   0  0  0  0  0  0  0  0  0  0  0  0
   20.0320   21.0124    0.0000 C   0  0  0  0  0  0  0  0  0  0  0  0
   19.6169   21.9222    0.0000 C   0  0  0  0  0  0  0  0  0  0  0  0
   19.4516   20.1980    0.0000 C   0  0  0  0  0  0  0  0  0  0  0  0
   21.0274   20.9169    0.0000 C   0  0  0  0  0  0  0  0  0  0  0  0
   18.6215   22.0177    0.0000 C   0  0  0  0  0  0  0  0  0  0  0  0
   18.4561   20.2935    0.0000 C   0  0  0  0  0  0  0  0  0  0  0  0
   18.0411   21.2033    0.0000 C   0  0  0  0  0  0  0  0  0  0  0  0
   22.8529   19.0018    0.0000 C   0  0  0  0  0  0  0  0  0  0  0  0
   21.6078   21.7313    0.0000 C   0  0  0  0  0  0  0  0  0  0  0  0
   23.8329   18.8028    0.0000 C   0  0  0  0  0  0  0  0  0  0  0  0
   22.4379   19.9116    0.0000 C   0  0  0  0  0  0  0  0  0  0  0  0
   23.9465   17.8093    0.0000 C   0  0  0  0  0  0  0  0  0  0  0  0
   23.0367   17.3943    0.0000 C   0  0  0  0  0  0  0  0  0  0  0  0
   21.3673   18.0177    0.0000 C   0  0  0  0  0  0  0  0  0  0  0  0
   21.7731   23.4554    0.0000 C   0  0  0  0  0  0  0  0  0  0  0  0
   20.9689   17.1005    0.0000 C   0  0  0  0  0  0  0  0  0  0  0  0
   22.7686   23.3599    0.0000 C   0  0  0  0  0  0  0  0  0  0  0  0
   19.9753   16.9869    0.0000 C   0  0  0  0  0  0  0  0  0  0  0  0
   23.1836   22.4501    0.0000 C   0  0  0  0  0  0  0  0  0  0  0  0
   21.3581   24.3652    0.0000 C   0  0  0  0  0  0  0  0  0  0  0  0
   19.3802   17.7906    0.0000 C   0  0  0  0  0  0  0  0  0  0  0  0
   24.1790   22.3547    0.0000 C   0  0  0  0  0  0  0  0  0  0  0  0
   21.1656   15.3797    0.0000 C   0  0  0  0  0  0  0  0  0  0  0  0
   21.7607   14.5760    0.0000 C   0  0  0  0  0  0  0  0  0  0  0  0
   24.5941   21.4448    0.0000 C   0  0  0  0  0  0  0  0  0  0  0  0
   19.7786   18.7078    0.0000 C   0  0  0  0  0  0  0  0  0  0  0  0
   18.3867   17.6770    0.0000 C   0  0  0  0  0  0  0  0  0  0  0  0
   22.7543   14.6896    0.0000 C   0  0  0  0  0  0  0  0  0  0  0  0
   19.1835   19.5114    0.0000 C   0  0  0  0  0  0  0  0  0  0  0  0
   17.7916   18.4806    0.0000 C   0  0  0  0  0  0  0  0  0  0  0  0
   23.1527   15.6068    0.0000 C   0  0  0  0  0  0  0  0  0  0  0  0
   18.1900   19.3978    0.0000 C   0  0  0  0  0  0  0  0  0  0  0  0
   21.9575   12.8552    0.0000 C   0  0  0  0  0  0  0  0  0  0  0  0
   21.5590   11.9380    0.0000 C   0  0  0  0  0  0  0  0  0  0  0  0
   26.1699   22.1637    0.0000 C   0  0  0  0  0  0  0  0  0  0  0  0
   24.1462   15.7204    0.0000 C   0  0  0  0  0  0  0  0  0  0  0  0
   22.1542   11.1343    0.0000 C   0  0  0  0  0  0  0  0  0  0  0  0
   27.1653   22.0682    0.0000 C   0  0  0  0  0  0  0  0  0  0  0  0
   23.1477   11.2479    0.0000 C   0  0  0  0  0  0  0  0  0  0  0  0
   27.5804   21.1584    0.0000 C   0  0  0  0  0  0  0  0  0  0  0  0
   20.1671   10.9072    0.0000 C   0  0  0  0  0  0  0  0  0  0  0  0
   23.8189   10.5147    0.0000 C   0  0  0  0  0  0  0  0  0  0  0  0
   19.1736   10.7936    0.0000 C   0  0  0  0  0  0  0  0  0  0  0  0
   23.6361   12.1137    0.0000 C   0  0  0  0  0  0  0  0  0  0  0  0
   24.7280   10.9313    0.0000 C   0  0  0  0  0  0  0  0  0  0  0  0
   18.7752    9.8764    0.0000 C   0  0  0  0  0  0  0  0  0  0  0  0
   23.7252    9.5191    0.0000 C   0  0  0  0  0  0  0  0  0  0  0  0
   28.9908   20.1532    0.0000 C   0  0  0  0  0  0  0  0  0  0  0  0
   16.9898   12.2873    0.0000 C   0  0  0  0  0  0  0  0  0  0  0  0
   17.5849   11.4837    0.0000 C   0  0  0  0  0  0  0  0  0  0  0  0
   17.3882   13.2045    0.0000 C   0  0  0  0  0  0  0  0  0  0  0  0
   19.3703    9.0728    0.0000 C   0  0  0  0  0  0  0  0  0  0  0  0
   24.5405    8.9401    0.0000 C   0  0  0  0  0  0  0  0  0  0  0  0
   25.4496    9.3567    0.0000 C   0  0  0  0  0  0  0  0  0  0  0  0
   29.9863   20.0577    0.0000 C   0  0  0  0  0  0  0  0  0  0  0  0
   17.7866   14.1217    0.0000 C   0  0  0  0  0  0  0  0  0  0  0  0
   18.3054   12.8061    0.0000 C   0  0  0  0  0  0  0  0  0  0  0  0
   16.4710   13.6029    0.0000 C   0  0  0  0  0  0  0  0  0  0  0  0
   18.9719    8.1556    0.0000 C   0  0  0  0  0  0  0  0  0  0  0  0
   20.3638    9.1863    0.0000 C   0  0  0  0  0  0  0  0  0  0  0  0
   15.4012   12.9773    0.0000 C   0  0  0  0  0  0  0  0  0  0  0  0
   19.5670    7.3519    0.0000 C   0  0  0  0  0  0  0  0  0  0  0  0
   20.9590    8.3827    0.0000 C   0  0  0  0  0  0  0  0  0  0  0  0
   14.4076   12.8638    0.0000 C   0  0  0  0  0  0  0  0  0  0  0  0
   20.5606    7.4655    0.0000 C   0  0  0  0  0  0  0  0  0  0  0  0
   31.3967   19.0524    0.0000 C   0  0  0  0  0  0  0  0  0  0  0  0
   13.8125   13.6674    0.0000 C   0  0  0  0  0  0  0  0  0  0  0  0
   31.8118   18.1426    0.0000 C   0  0  0  0  0  0  0  0  0  0  0  0
   13.0157   11.8330    0.0000 C   0  0  0  0  0  0  0  0  0  0  0  0
   14.6043   11.1429    0.0000 C   0  0  0  0  0  0  0  0  0  0  0  0
   12.6173   10.9158    0.0000 C   0  0  0  0  0  0  0  0  0  0  0  0
   14.2109   14.5846    0.0000 C   0  0  0  0  0  0  0  0  0  0  0  0
   13.4717   10.3962    0.0000 C   0  0  0  0  0  0  0  0  0  0  0  0
   33.2223   17.1374    0.0000 C   0  0  0  0  0  0  0  0  0  0  0  0
   14.1543    9.6653    0.0000 C   0  0  0  0  0  0  0  0  0  0  0  0
   10.6544   11.1856    0.0000 C   0  0  0  0  0  0  0  0  0  0  0  0
    9.6915   10.9158    0.0000 C   0  0  0  0  0  0  0  0  0  0  0  0
   34.2177   17.0419    0.0000 C   0  0  0  0  0  0  0  0  0  0  0  0
    9.2931   11.8330    0.0000 C   0  0  0  0  0  0  0  0  0  0  0  0
   14.8178    7.7984    0.0000 C   0  0  0  0  0  0  0  0  0  0  0  0
   14.7495    6.8007    0.0000 C   0  0  0  0  0  0  0  0  0  0  0  0
    8.2995   11.9466    0.0000 C   0  0  0  0  0  0  0  0  0  0  0  0
    8.1545    9.6653    0.0000 C   0  0  0  0  0  0  0  0  0  0  0  0
   14.4147    5.8584    0.0000 C   0  0  0  0  0  0  0  0  0  0  0  0
    7.6944    8.7774    0.0000 C   0  0  0  0  0  0  0  0  0  0  0  0
   35.6282   16.0366    0.0000 C   0  0  0  0  0  0  0  0  0  0  0  0
   13.8380    5.0415    0.0000 C   0  0  0  0  0  0  0  0  0  0  0  0
    6.7522    9.1123    0.0000 C   0  0  0  0  0  0  0  0  0  0  0  0
    7.7044   11.1429    0.0000 C   0  0  0  0  0  0  0  0  0  0  0  0
    7.9011   12.8638    0.0000 C   0  0  0  0  0  0  0  0  0  0  0  0
   13.0623    4.4104    0.0000 C   0  0  0  0  0  0  0  0  0  0  0  0
   36.0432   15.1268    0.0000 C   0  0  0  0  0  0  0  0  0  0  0  0
    5.9910    8.4637    0.0000 C   0  0  0  0  0  0  0  0  0  0  0  0
    6.7109   11.2565    0.0000 C   0  0  0  0  0  0  0  0  0  0  0  0
    6.9076   12.9773    0.0000 C   0  0  0  0  0  0  0  0  0  0  0  0
    7.5592    6.8007    0.0000 C   0  0  0  0  0  0  0  0  0  0  0  0
    7.8941    5.8584    0.0000 C   0  0  0  0  0  0  0  0  0  0  0  0
   12.1451    4.0120    0.0000 C   0  0  0  0  0  0  0  0  0  0  0  0
   10.1637    4.0120    0.0000 C   0  0  0  0  0  0  0  0  0  0  0  0
    5.0488    8.7986    0.0000 C   0  0  0  0  0  0  0  0  0  0  0  0
    6.3125   12.1737    0.0000 C   0  0  0  0  0  0  0  0  0  0  0  0
    9.8939    3.0491    0.0000 C   0  0  0  0  0  0  0  0  0  0  0  0
    7.0062    5.3984    0.0000 C   0  0  0  0  0  0  0  0  0  0  0  0
    9.2465    4.4104    0.0000 C   0  0  0  0  0  0  0  0  0  0  0  0
   37.4537   14.1215    0.0000 C   0  0  0  0  0  0  0  0  0  0  0  0
   14.5816    3.5787    0.0000 C   0  0  0  0  0  0  0  0  0  0  0  0
   10.5929    2.3340    0.0000 C   0  0  0  0  0  0  0  0  0  0  0  0
    8.9251    2.8013    0.0000 C   0  0  0  0  0  0  0  0  0  0  0  0
    6.9607    4.3994    0.0000 C   0  0  0  0  0  0  0  0  0  0  0  0
   38.4491   14.0261    0.0000 C   0  0  0  0  0  0  0  0  0  0  0  0
   15.1012    2.7243    0.0000 C   0  0  0  0  0  0  0  0  0  0  0  0
    3.3454    8.4849    0.0000 C   0  0  0  0  0  0  0  0  0  0  0  0
   88.2306  -22.0682    0.0000 C   0  0  0  0  0  0  0  0  0  0  0  0
   89.2261  -22.1637    0.0000 C   0  0  0  0  0  0  0  0  0  0  0  0
    6.0728    3.9394    0.0000 C   0  0  0  0  0  0  0  0  0  0  0  0
   87.8156  -21.1584    0.0000 C   0  0  0  0  0  0  0  0  0  0  0  0
   89.6411  -23.0735    0.0000 C   0  0  0  0  0  0  0  0  0  0  0  0
   86.8202  -21.0630    0.0000 C   0  0  0  0  0  0  0  0  0  0  0  0
   90.6365  -23.1690    0.0000 C   0  0  0  0  0  0  0  0  0  0  0  0
   86.4051  -20.1532    0.0000 C   0  0  0  0  0  0  0  0  0  0  0  0
   91.0516  -24.0788    0.0000 C   0  0  0  0  0  0  0  0  0  0  0  0
   85.4097  -20.0577    0.0000 C   0  0  0  0  0  0  0  0  0  0  0  0
   92.0470  -24.1743    0.0000 C   0  0  0  0  0  0  0  0  0  0  0  0
   84.9946  -19.1479    0.0000 C   0  0  0  0  0  0  0  0  0  0  0  0
   92.4620  -25.0841    0.0000 C   0  0  0  0  0  0  0  0  0  0  0  0
   83.9992  -19.0524    0.0000 C   0  0  0  0  0  0  0  0  0  0  0  0
   93.4575  -25.1795    0.0000 C   0  0  0  0  0  0  0  0  0  0  0  0
   39.8596   13.0208    0.0000 C   0  0  0  0  0  0  0  0  0  0  0  0
   83.5842  -18.1426    0.0000 C   0  0  0  0  0  0  0  0  0  0  0  0
   93.8725  -26.0893    0.0000 C   0  0  0  0  0  0  0  0  0  0  0  0
   40.2746   12.1110    0.0000 C   0  0  0  0  0  0  0  0  0  0  0  0
   82.1737  -17.1374    0.0000 C   0  0  0  0  0  0  0  0  0  0  0  0
   81.1783  -17.0419    0.0000 C   0  0  0  0  0  0  0  0  0  0  0  0
   80.7632  -16.1321    0.0000 C   0  0  0  0  0  0  0  0  0  0  0  0
   82.7541  -16.3230    0.0000 C   0  0  0  0  0  0  0  0  0  0  0  0
   41.6851   11.1057    0.0000 C   0  0  0  0  0  0  0  0  0  0  0  0
   79.7678  -16.0366    0.0000 C   0  0  0  0  0  0  0  0  0  0  0  0
   42.6805   11.0103    0.0000 C   0  0  0  0  0  0  0  0  0  0  0  0
   78.3573  -15.0313    0.0000 C   0  0  0  0  0  0  0  0  0  0  0  0
   77.9423  -14.1215    0.0000 C   0  0  0  0  0  0  0  0  0  0  0  0
   44.0910   10.0050    0.0000 C   0  0  0  0  0  0  0  0  0  0  0  0
   44.5060    9.0952    0.0000 C   0  0  0  0  0  0  0  0  0  0  0  0
   76.5318  -13.1163    0.0000 C   0  0  0  0  0  0  0  0  0  0  0  0
   75.5364  -13.0208    0.0000 C   0  0  0  0  0  0  0  0  0  0  0  0
   45.9165    8.0899    0.0000 C   0  0  0  0  0  0  0  0  0  0  0  0
   74.1259  -12.0155    0.0000 C   0  0  0  0  0  0  0  0  0  0  0  0
   46.9119    7.9944    0.0000 C   0  0  0  0  0  0  0  0  0  0  0  0
   73.7109  -11.1057    0.0000 C   0  0  0  0  0  0  0  0  0  0  0  0
   72.3004  -10.1005    0.0000 C   0  0  0  0  0  0  0  0  0  0  0  0
   48.3224    6.9892    0.0000 C   0  0  0  0  0  0  0  0  0  0  0  0
   71.3050  -10.0050    0.0000 C   0  0  0  0  0  0  0  0  0  0  0  0
   48.7374    6.0794    0.0000 C   0  0  0  0  0  0  0  0  0  0  0  0
   69.8945   -8.9997    0.0000 C   0  0  0  0  0  0  0  0  0  0  0  0
   69.4795   -8.0899    0.0000 C   0  0  0  0  0  0  0  0  0  0  0  0
   50.1479    5.0741    0.0000 C   0  0  0  0  0  0  0  0  0  0  0  0
   51.1433    4.9786    0.0000 C   0  0  0  0  0  0  0  0  0  0  0  0
   68.0690   -7.0846    0.0000 C   0  0  0  0  0  0  0  0  0  0  0  0
   67.0736   -6.9892    0.0000 C   0  0  0  0  0  0  0  0  0  0  0  0
   52.5538    3.9734    0.0000 C   0  0  0  0  0  0  0  0  0  0  0  0
   65.6631   -5.9839    0.0000 C   0  0  0  0  0  0  0  0  0  0  0  0
   52.9688    3.0636    0.0000 C   0  0  0  0  0  0  0  0  0  0  0  0
   65.2480   -5.0741    0.0000 C   0  0  0  0  0  0  0  0  0  0  0  0
   54.3793    2.0583    0.0000 C   0  0  0  0  0  0  0  0  0  0  0  0
   63.8376   -4.0688    0.0000 C   0  0  0  0  0  0  0  0  0  0  0  0
   55.3748    1.9628    0.0000 C   0  0  0  0  0  0  0  0  0  0  0  0
   62.8421   -3.9734    0.0000 C   0  0  0  0  0  0  0  0  0  0  0  0
   61.4317   -2.9681    0.0000 C   0  0  0  0  0  0  0  0  0  0  0  0
   56.7852    0.9575    0.0000 C   0  0  0  0  0  0  0  0  0  0  0  0
   61.0166   -2.0583    0.0000 C   0  0  0  0  0  0  0  0  0  0  0  0
   57.2003    0.0477    0.0000 C   0  0  0  0  0  0  0  0  0  0  0  0
   59.6062   -1.0530    0.0000 C   0  0  0  0  0  0  0  0  0  0  0  0
   58.6107   -0.9575    0.0000 C   0  0  0  0  0  0  0  0  0  0  0  0
    2.5800    9.6760    0.0000 H   0  0  0  0  0  0  0  0  0  0  0  0
  5 92  2  0
  6 94  2  0
  7 97  2  0
  8103  1  0
  9103  2  0
 10106  2  0
 11115  1  0
 12116  2  0
 13118  2  0
 14119  1  0
 15119  2  0
 16123  1  0
 16131  1  0
 17124  2  0
 18133  2  0
 19138  1  0
 19149  1  0
 20144  2  0
 21148  1  0
 22151  1  0
 22157  1  0
 23152  2  0
 24155  1  0
 25155  2  0
 26161  1  0
 26169  1  0
 27158  2  0
 28159  2  0
 29166  2  0
 30175  1  0
 30188  1  0
 31179  2  0
 32181  2  0
 33187  2  0
 34189  2  0
 35193  1  0
 35211  1  0
 36198  1  0
 37198  2  0
 38214  1  0
 38219  1  0
 39212  2  0
 40218  1  0
 41218  2  0
 42220  2  0
 43221  1  0
 43224  1  0
 44223  1  0
 44226  1  0
 45225  1  0
 45228  1  0
 46227  1  0
 46229  1  0
 47230  1  0
 47233  1  0
 48231  1  0
 48232  1  0
 49234  1  0
 49236  1  0
 50235  1  0
 50238  1  0
 51237  1  0
 51240  1  0
 52239  1  0
 52242  1  0
 53241  1  0
 53243  1  0
 54244  1  0
 54246  1  0
 55245  1  0
 55247  1  0
 56249  1  0
 56250  1  0
 57248  1  0
 57251  1  0
 58252  1  0
 58254  1  0
 59253  1  0
 59255  1  0
 87 60  1  1
 60 94  1  0
 61 91  1  0
 61 96  1  0
 61 97  1  0
 62 92  1  0
 98 62  1  0
 99 63  1  0
 63106  1  0
107 64  1  0
 64116  1  0
 65108  1  0
 65118  1  0
117 66  1  0
 66124  1  0
 67127  1  0
 67128  1  0
126 68  1  0
 68133  1  0
 69128  2  0
 69137  1  0
132 70  1  1
 70144  1  0
147 71  1  0
 71152  1  0
 71153  1  0
 72154  1  0
 72159  1  0
 73158  1  0
 73163  1  0
 74160  1  0
 74166  1  0
 75168  1  0
 75179  1  0
174 76  1  6
 76189  1  0
 77181  1  0
 77182  1  0
 78180  1  0
 78187  1  0
 79183  1  0
 79195  1  0
 80195  1  0
 81195  2  0
 81256  1  0
 82212  1  0
215 82  1  0
 83220  1  0
 83222  1  0
 84 85  1  0
 84 86  1  0
 84 87  1  0
 85 88  1  0
 86 89  1  0
 87 92  1  0
 88 90  1  0
 89 90  1  0
 91 93  1  0
 91 94  1  6
 93 95  1  0
 95 96  1  0
 97 99  1  0
 98100  1  6
 98103  1  0
 99101  1  1
100102  1  0
101104  1  0
102105  1  0
104109  2  0
104110  1  0
105108  1  0
106107  1  0
107111  1  6
109112  1  0
110113  2  0
111114  1  0
112115  2  0
113115  1  0
114119  1  0
116117  1  0
117120  1  6
118121  1  0
120122  1  0
121123  1  0
122125  1  0
122127  2  0
124126  1  0
125128  1  0
125130  2  0
126129  1  6
129135  1  0
130136  1  0
131138  1  0
132133  1  0
132134  1  0
134139  1  0
134140  1  0
134141  1  0
135142  2  0
135143  1  0
136137  2  0
142145  1  0
143146  2  0
144147  1  0
145148  2  0
146148  1  0
147150  1  1
149151  1  0
150155  1  0
154152  1  6
154156  1  0
156158  1  0
157161  1  0
159160  1  0
160162  1  1
162165  1  0
163164  1  0
164167  1  0
165172  2  0
165173  1  0
166168  1  0
167170  1  0
168171  1  1
169175  1  0
170174  1  0
171176  1  0
172177  1  0
173178  2  0
174181  1  0
176183  1  0
177184  2  0
178184  1  0
179180  1  0
180186  1  1
182185  1  1
182187  1  0
185190  1  0
185191  1  0
186192  1  0
188193  1  0
189194  1  0
192198  1  0
196197  1  0
196199  1  0
197200  1  0
199201  1  0
200202  1  0
201203  1  0
202204  1  0
203205  1  0
204206  1  0
205207  1  0
206208  1  0
207209  1  0
208210  1  0
209212  1  0
210213  1  0
211214  1  0
215216  1  1
215218  1  0
216217  1  0
217220  1  0
219221  1  0
222223  1  0
224225  1  0
226227  1  0
228230  1  0
229231  1  0
232234  1  0
233235  1  0
236237  1  0
238239  1  0
240241  1  0
242244  1  0
243245  1  0
246248  1  0
247249  1  0
250252  1  0
251253  1  0
254255  1  0
M  CHG  8   1   1   2   1   3   1   4   1   8  -1  14  -1  24  -1  36  -1
M  END
