 
     RDKit          2D

 82 87  0  2  1  0  0  0  0  0999 V2000
   29.5066  -18.6348    0.0000 O   0  0  0  0  0  0  0  0  0  0  0  0
   18.0622  -16.8904    0.0000 C   0  0  0  0  0  0  0  0  0  0  0  0
   18.0622  -15.5648    0.0000 C   0  0  0  0  0  0  0  0  0  0  0  0
   19.2482  -17.5881    0.0000 C   0  0  0  0  0  0  0  0  0  0  0  0
   16.9458  -17.5183    0.0000 C   0  0  0  0  0  0  0  0  0  0  0  0
   19.2482  -16.2625    0.0000 C   0  0  0  0  0  0  0  0  0  0  0  0
   16.9458  -14.9368    0.0000 C   0  0  0  0  0  0  0  0  0  0  0  0
   19.2482  -14.9368    0.0000 C   0  0  0  0  0  0  0  0  0  0  0  0
   20.3645  -16.8904    0.0000 C   0  0  0  0  0  0  0  0  0  0  0  0
   19.2482  -18.8439    0.0000 C   0  0  0  0  0  0  0  0  0  0  0  0
   15.6202  -16.1927    0.0000 O   0  0  0  0  0  0  0  0  0  0  0  0
   16.9458  -18.8439    0.0000 C   0  0  0  0  0  0  0  0  0  0  0  0
   21.4808  -16.2625    0.0000 C   0  0  0  0  0  0  0  0  0  0  0  0
   16.9458  -13.6112    0.0000 C   0  0  0  0  0  0  0  0  0  0  0  0
   20.3645  -15.6345    0.0000 C   0  0  0  0  0  0  0  0  0  0  0  0
   19.2482  -13.6112    0.0000 C   0  0  0  0  0  0  0  0  0  0  0  0
   21.4808  -17.5881    0.0000 N   0  0  0  0  0  0  0  0  0  0  0  0
   18.0622  -19.5416    0.0000 C   0  0  0  0  0  0  0  0  0  0  0  0
   15.8295  -19.5416    0.0000 O   0  0  0  0  0  0  0  0  0  0  0  0
   18.1319  -12.9833    0.0000 C   0  0  0  0  0  0  0  0  0  0  0  0
   15.8295  -12.9833    0.0000 O   0  0  0  0  0  0  0  0  0  0  0  0
   14.6435  -13.6112    0.0000 C   0  0  0  0  0  0  0  0  0  0  0  0
   22.8808  -17.5881    0.0000 C   0  0  0  0  0  0  0  0  0  0  0  0
   28.5285  -14.7289    0.0000 P   0  0  0  0  0  0  0  0  0  0  0  0
   28.5285  -13.3335    0.0000 O   0  0  0  0  0  0  0  0  0  0  0  0
   28.5285  -16.1243    0.0000 O   0  0  0  0  0  0  0  0  0  0  0  0
   29.9238  -14.7289    0.0000 O   0  0  0  0  0  0  0  0  0  0  0  0
   27.1331  -14.7289    0.0000 O   0  0  0  0  0  0  0  0  0  0  0  0
   18.0622  -16.8904    0.0000 C   0  0  0  0  0  0  0  0  0  0  0  0
   18.0622  -15.5648    0.0000 C   0  0  0  0  0  0  0  0  0  0  0  0
   16.9458  -14.9368    0.0000 C   0  0  0  0  0  0  0  0  0  0  0  0
   16.9458  -13.6112    0.0000 C   0  0  0  0  0  0  0  0  0  0  0  0
   18.1319  -12.9833    0.0000 C   0  0  0  0  0  0  0  0  0  0  0  0
   19.2482  -13.6112    0.0000 C   0  0  0  0  0  0  0  0  0  0  0  0
   19.2482  -14.9368    0.0000 C   0  0  0  0  0  0  0  0  0  0  0  0
   20.3645  -15.6345    0.0000 C   0  0  0  0  0  0  0  0  0  0  0  0
   20.3645  -16.8904    0.0000 C   0  0  0  0  0  0  0  0  0  0  0  0
   19.2482  -17.5881    0.0000 C   0  0  0  0  0  0  0  0  0  0  0  0
   19.2482  -18.8439    0.0000 C   0  0  0  0  0  0  0  0  0  0  0  0
   18.0622  -19.5416    0.0000 C   0  0  0  0  0  0  0  0  0  0  0  0
   16.9458  -18.8439    0.0000 C   0  0  0  0  0  0  0  0  0  0  0  0
   16.9458  -17.5183    0.0000 C   0  0  0  0  0  0  0  0  0  0  0  0
   15.6202  -16.1927    0.0000 O   0  0  0  0  0  0  0  0  0  0  0  0
   15.8295  -19.5416    0.0000 O   0  0  0  0  0  0  0  0  0  0  0  0
   21.4808  -17.5881    0.0000 N   0  0  0  0  0  0  0  0  0  0  0  0
   21.4808  -16.2625    0.0000 C   0  0  0  0  0  0  0  0  0  0  0  0
   19.2482  -16.2625    0.0000 C   0  0  0  0  0  0  0  0  0  0  0  0
   22.8808  -17.5881    0.0000 C   0  0  0  0  0  0  0  0  0  0  0  0
   15.8295  -12.9833    0.0000 O   0  0  0  0  0  0  0  0  0  0  0  0
   14.6435  -13.6112    0.0000 C   0  0  0  0  0  0  0  0  0  0  0  0
   28.5285  -14.7289    0.0000 P   0  0  0  0  0  0  0  0  0  0  0  0
   28.5285  -13.3335    0.0000 O   0  0  0  0  0  0  0  0  0  0  0  0
   28.5285  -16.1243    0.0000 O   0  0  0  0  0  0  0  0  0  0  0  0
   29.9238  -14.7289    0.0000 O   0  0  0  0  0  0  0  0  0  0  0  0
   27.1331  -14.7289    0.0000 O   0  0  0  0  0  0  0  0  0  0  0  0
   19.2774  -11.8495    0.0000 C   0  0  0  0  0  0  0  0  0  0  0  0
   17.7264  -11.8554    0.0000 C   0  0  0  0  0  0  0  0  0  0  0  0
   19.9250  -12.9665    0.0000 C   0  0  0  0  0  0  0  0  0  0  0  0
   17.0845  -12.9784    0.0000 C   0  0  0  0  0  0  0  0  0  0  0  0
   19.2832  -14.0898    0.0000 O   0  0  0  0  0  0  0  0  0  0  0  0
   21.2204  -12.9607    0.0000 O   0  0  0  0  0  0  0  0  0  0  0  0
   15.7890  -12.9784    0.0000 O   0  0  0  0  0  0  0  0  0  0  0  0
   17.7381  -14.0956    0.0000 O   0  0  0  0  0  0  0  0  0  0  0  0
    7.0000  -14.8400    0.0000 C   0  0  0  0  0  0  0  0  0  0  0  0
    7.0000  -16.2400    0.0000 C   0  0  0  0  0  0  0  0  0  0  0  0
    8.2124  -16.9400    0.0000 C   0  0  0  0  0  0  0  0  0  0  0  0
    9.4249  -16.2400    0.0000 C   0  0  0  0  0  0  0  0  0  0  0  0
    9.4249  -14.8400    0.0000 C   0  0  0  0  0  0  0  0  0  0  0  0
    8.2124  -14.1400    0.0000 C   0  0  0  0  0  0  0  0  0  0  0  0
   11.8497  -16.2400    0.0000 C   0  0  0  0  0  0  0  0  0  0  0  0
   11.8497  -14.8400    0.0000 C   0  0  0  0  0  0  0  0  0  0  0  0
   10.6373  -14.1400    0.0000 C   0  0  0  0  0  0  0  0  0  0  0  0
   13.0622  -16.9400    0.0000 C   0  0  0  0  0  0  0  0  0  0  0  0
   14.2746  -16.2400    0.0000 C   0  0  0  0  0  0  0  0  0  0  0  0
   14.2746  -14.8400    0.0000 C   0  0  0  0  0  0  0  0  0  0  0  0
   13.0622  -14.1400    0.0000 N   0  0  0  0  0  0  0  0  0  0  0  0
    5.7876  -16.9400    0.0000 Cl  0  0  0  0  0  0  0  0  0  0  0  0
   10.6373  -12.7400    0.0000 C   0  0  0  0  0  0  0  0  0  0  0  0
   11.8518  -12.0388    0.0000 C   0  0  0  0  0  0  0  0  0  0  0  0
   11.8518  -10.6402    0.0000 N   0  0  0  0  0  0  0  0  0  0  0  0
   13.0479   -9.9495    0.0000 C   0  0  0  0  0  0  0  0  0  0  0  0
   10.6230   -9.9306    0.0000 C   0  0  0  0  0  0  0  0  0  0  0  0
  2  3  1  0
  2  4  1  0
  2  5  1  0
  2  6  1  1
  3  7  2  0
  3  8  1  0
  4  9  1  0
  4 10  1  6
  5 11  1  6
  5 12  1  0
  6 13  1  0
  7 14  1  0
  8 15  1  0
  8 16  2  0
  9 17  1  0
 10 18  2  0
 12 19  1  6
 14 20  2  0
 14 21  1  0
 21 22  1  0
  7 11  1  0
  9 15  1  1
 12 18  1  0
 13 17  1  0
 16 20  1  0
 17 23  1  0
 29 30  1  0
 29 38  1  0
 29 42  1  0
 29 47  1  1
 30 31  1  0
 30 35  2  0
 38 37  1  0
 38 39  1  6
 42 43  1  6
 42 41  1  0
 47 46  1  0
 31 32  2  0
 35 36  1  0
 35 34  1  0
 37 45  1  0
 39 40  2  0
 41 44  1  6
 32 33  1  0
 32 49  1  0
 49 50  1  0
 31 43  1  0
 37 36  1  1
 41 40  1  0
 46 45  1  0
 34 33  2  0
 45 48  1  0
 24 25  2  0
 24 26  1  0
 24 27  1  0
 24 28  1  0
 51 52  2  0
 51 53  1  0
 51 54  1  0
 51 55  1  0
 56 57  2  0
 56 58  1  0
 57 59  1  0
 58 60  1  0
 58 61  2  0
 59 62  1  0
 59 63  2  0
 64 65  2  0
 65 66  1  0
 66 67  2  0
 67 68  1  0
 68 69  2  0
 64 69  1  0
 70 71  2  0
 71 72  1  0
 68 72  1  0
 70 73  1  0
 73 74  2  0
 74 75  1  0
 75 76  2  0
 71 76  1  0
 65 77  1  0
 72 78  1  0
 78 79  1  0
 79 80  1  0
 80 81  1  0
 80 82  1  0
M  STY  2   1 MUL   2 MUL
M  SLB  2   1   1   2   2
M  SCN  2   1 HT    2 HT 
M  SAL   1 15   2   3   4   5   6   7   8   9  10  11  12  13  14  15  16
M  SAL   1 15  17  18  19  20  21  22  23  29  30  31  32  33  34  35  36
M  SAL   1 14  37  38  39  40  41  42  43  44  45  46  47  48  49  50
M  SPA   1 15   2   3   7  14  20  16   8  15   9   4  10  18  12   5  11
M  SPA   1  7  19  17  13   6  23  21  22
M  SDI   1  4   12.7400  -20.3000   12.7400  -12.0400
M  SDI   1  4   24.3600  -12.0400   24.3600  -20.3000
M  SMT   1 2
M  SAL   2 10  24  25  26  27  28  51  52  53  54  55
M  SPA   2  5  24  25  26  27  28
M  SDI   2  4   25.6900  -16.8000   25.6900  -12.6000
M  SDI   2  4   31.1500  -12.6000   31.1500  -16.8000
M  SMT   2 2
M  END
