 
 
 
 28 32  0  0  1  0  0  0  0  0999 V2000
   18.9700  -16.3100    0.0000 C   0  0  1  0  0  0  0  0  0  0  0  0
   19.6700  -15.3300    0.0000 C   0  0  2  0  0  0  0  0  0  0  0  0
   19.9500  -17.0800    0.0000 C   0  0  0  0  0  0  0  0  0  0  0  0
   20.8600  -16.0300    0.0000 C   0  0  2  0  0  0  0  0  0  0  0  0
   21.6300  -15.1900    0.0000 C   0  0  2  0  0  0  0  0  0  0  0  0
   22.6800  -16.0300    0.0000 C   0  0  0  0  0  0  0  0  0  0  0  0
   22.0500  -13.8600    0.0000 C   0  0  0  0  0  0  0  0  0  0  0  0
   15.8900  -15.6100    0.0000 C   0  0  0  0  0  0  0  0  0  0  0  0
   17.0100  -17.2200    0.0000 N   0  0  0  0  0  0  0  0  0  0  0  0
   15.8900  -16.8000    0.0000 C   0  0  0  0  0  0  0  0  0  0  0  0
   14.8400  -14.9800    0.0000 C   0  0  0  0  0  0  0  0  0  0  0  0
   14.8400  -17.4300    0.0000 C   0  0  0  0  0  0  0  0  0  0  0  0
   13.7900  -15.6100    0.0000 C   0  0  0  0  0  0  0  0  0  0  0  0
   13.7900  -16.8000    0.0000 C   0  0  0  0  0  0  0  0  0  0  0  0
   17.7800  -16.2400    0.0000 C   0  0  0  0  0  0  0  0  0  0  0  0
   17.0800  -15.2600    0.0000 C   0  0  0  0  0  0  0  0  0  0  0  0
   17.4300  -14.0700    0.0000 C   0  0  0  0  0  0  0  0  0  0  0  0
   18.5500  -13.5800    0.0000 C   0  0  0  0  0  0  0  0  0  0  0  0
   19.6000  -14.2100    0.0000 N   0  0  1  0  0  0  0  0  0  0  0  0
   20.4400  -12.5300    0.0000 C   0  0  0  0  0  0  0  0  0  0  0  0
   18.6200  -17.6400    0.0000 C   0  0  0  0  0  0  0  0  0  0  0  0
   19.6000  -18.5500    0.0000 O   0  0  0  0  0  0  0  0  0  0  0  0
   19.1800  -19.8800    0.0000 C   0  0  0  0  0  0  0  0  0  0  0  0
   17.7800  -18.6200    0.0000 O   0  0  0  0  0  0  0  0  0  0  0  0
   18.4800  -15.1200    0.0000 H   0  0  0  0  0  0  0  0  0  0  0  0
   23.2400  -13.1600    0.0000 C   0  0  0  0  0  0  0  0  0  0  0  0
   24.4300  -13.8600    0.0000 O   0  0  0  0  0  0  0  0  0  0  0  0
   25.6200  -13.1600    0.0000 C   0  0  0  0  0  0  0  0  0  0  0  0
  3  4  1  0     0  0
  5  6  1  0     0  0
  1  2  1  0     0  0
  1  3  1  0     0  0
  2  5  1  0     0  0
 16  8  1  0     0  0
 15  9  1  0     0  0
  8 10  2  0     0  0
  8 11  1  0     0  0
 10 12  1  0     0  0
 11 13  2  0     0  0
 12 14  2  0     0  0
  9 10  1  0     0  0
 13 14  1  0     0  0
 15 16  2  0     0  0
 16 17  1  0     0  0
 15  1  1  0     0  0
 17 18  1  0     0  0
 18 19  1  0     0  0
  2 19  1  0     0  0
 19 20  1  1     0  0
  1 21  1  6     0  0
 21 22  1  0     0  0
 22 23  1  0     0  0
 21 24  2  0     0  0
  4 20  1  1     0  0
  4  6  1  0     0  0
  5  7  1  1     0  0
  2 25  1  6     0  0
 26 27  1  0     0  0
 26  7  1  0     0  0
 27 28  1  0     0  0
M  END
