 
 
 
 30 32  0  0  1  0  0  0  0  0999 V2000
    6.7900  -13.8600    0.0000 C   0  0  0  0  0  0  0  0  0  0  0  0
    6.7900  -12.4600    0.0000 C   0  0  0  0  0  0  0  0  0  0  0  0
    7.9800  -11.7600    0.0000 C   0  0  0  0  0  0  0  0  0  0  0  0
    9.2400  -12.4600    0.0000 C   0  0  0  0  0  0  0  0  0  0  0  0
    9.2400  -13.8600    0.0000 C   0  0  0  0  0  0  0  0  0  0  0  0
    7.9800  -14.5600    0.0000 C   0  0  0  0  0  0  0  0  0  0  0  0
   10.4300  -14.5600    0.0000 C   0  0  0  0  0  0  0  0  0  0  0  0
   11.6200  -13.8600    0.0000 C   0  0  0  0  0  0  0  0  0  0  0  0
   12.8800  -14.5600    0.0000 C   0  0  0  0  0  0  0  0  0  0  0  0
   12.8800  -15.9600    0.0000 C   0  0  0  0  0  0  0  0  0  0  0  0
   11.6900  -16.6600    0.0000 C   0  0  0  0  0  0  0  0  0  0  0  0
   10.4300  -15.9600    0.0000 C   0  0  0  0  0  0  0  0  0  0  0  0
    9.2400  -16.6600    0.0000 O   0  0  0  0  0  0  0  0  0  0  0  0
    8.0500  -15.9600    0.0000 C   0  0  0  0  0  0  0  0  0  0  0  0
   11.6200  -12.4600    0.0000 O   0  0  0  0  0  0  0  0  0  0  0  0
   12.8100  -11.7600    0.0000 C   0  0  0  0  0  0  0  0  0  0  0  0
    7.9800  -10.3600    0.0000 C   0  0  0  0  0  0  0  0  0  0  0  0
    6.7900   -9.6600    0.0000 O   0  0  0  0  0  0  0  0  0  0  0  0
    6.0900  -15.0500    0.0000 C   0  0  0  0  0  0  0  0  0  0  0  0
    5.4600  -13.5100    0.0000 C   0  0  0  0  0  0  0  0  0  0  0  0
    7.9800  -13.1600    0.0000 C   0  0  0  0  0  0  0  0  0  0  0  0
   14.0700  -16.6600    0.0000 C   0  0  0  0  0  0  0  0  0  0  0  0
   15.2600  -15.9600    0.0000 C   0  0  0  0  0  0  0  0  0  0  0  0
   16.4500  -16.6600    0.0000 C   0  0  0  0  0  0  0  0  0  0  0  0
   17.6400  -15.9600    0.0000 C   0  0  0  0  0  0  0  0  0  0  0  0
   18.8300  -16.6600    0.0000 C   0  0  0  0  0  0  0  0  0  0  0  0
   20.0200  -15.9600    0.0000 C   0  0  0  0  0  0  0  0  0  0  0  0
   21.2100  -16.6600    0.0000 C   0  0  0  0  0  0  0  0  0  0  0  0
   13.3700  -17.9200    0.0000 C   0  0  0  0  0  0  0  0  0  0  0  0
   14.7700  -17.9200    0.0000 C   0  0  0  0  0  0  0  0  0  0  0  0
  1  2  1  0     0  0
  2  3  1  0     0  0
  3  4  2  0     0  0
  4  5  1  0     0  0
  5  6  1  0     0  0
  1  6  1  0     0  0
  5  7  1  6     0  0
  7  8  2  0     0  0
  8  9  1  0     0  0
  9 10  2  0     0  0
 10 11  1  0     0  0
 11 12  2  0     0  0
  7 12  1  0     0  0
 12 13  1  0     0  0
 13 14  1  0     0  0
  8 15  1  0     0  0
 15 16  1  0     0  0
  3 17  1  0     0  0
 17 18  1  0     0  0
  1 19  1  0     0  0
  1 20  1  0     0  0
  6 21  1  6     0  0
  2 21  1  6     0  0
 10 22  1  0     0  0
 22 23  1  0     0  0
 23 24  1  0     0  0
 24 25  1  0     0  0
 25 26  1  0     0  0
 26 27  1  0     0  0
 27 28  1  0     0  0
 22 29  1  0     0  0
 22 30  1  0     0  0
M  END
