 
 
 
 46 47  0  0  1  0  0  0  0  0999 V2000
    8.8900  -13.0900    0.0000 C   0  0  0  0  0  0  0  0  0  0  0  0
    8.8900  -11.6900    0.0000 C   0  0  0  0  0  0  0  0  0  0  0  0
   10.0800  -10.9900    0.0000 N   0  0  0  0  0  0  0  0  0  0  0  0
   11.3400  -11.6900    0.0000 C   0  0  0  0  0  0  0  0  0  0  0  0
   11.3400  -13.0900    0.0000 C   0  0  0  0  0  0  0  0  0  0  0  0
   10.0800  -13.7900    0.0000 N   0  0  0  0  0  0  0  0  0  0  0  0
    7.7000  -13.7900    0.0000 Cl  0  0  0  0  0  0  0  0  0  0  0  0
    7.7000  -10.9900    0.0000 N   0  0  0  0  0  0  0  0  0  0  0  0
   12.5300  -10.9900    0.0000 N   0  0  0  0  0  0  0  0  0  0  0  0
   12.5300  -13.7900    0.0000 C   0  0  0  0  0  0  0  0  0  0  0  0
   13.7200  -13.0900    0.0000 N   0  0  0  0  0  0  0  0  0  0  0  0
   12.5300  -15.1900    0.0000 O   0  0  0  0  0  0  0  0  0  0  0  0
   14.9100  -13.7900    0.0000 C   0  0  0  0  0  0  0  0  0  0  0  0
   16.1000  -13.0900    0.0000 N   0  0  0  0  0  0  0  0  0  0  0  0
   14.9100  -15.1900    0.0000 N   0  0  0  0  0  0  0  0  0  0  0  0
   17.2900  -13.7900    0.0000 C   0  0  0  0  0  0  0  0  0  0  0  0
   18.4800  -13.0900    0.0000 C   0  0  0  0  0  0  0  0  0  0  0  0
   19.6700  -13.7900    0.0000 C   0  0  0  0  0  0  0  0  0  0  0  0
   20.8600  -13.0900    0.0000 C   0  0  0  0  0  0  0  0  0  0  0  0
   22.0500  -13.7900    0.0000 C   0  0  0  0  0  0  0  0  0  0  0  0
   23.2400  -13.0900    0.0000 C   0  0  0  0  0  0  0  0  0  0  0  0
   24.5000  -13.7900    0.0000 C   0  0  0  0  0  0  0  0  0  0  0  0
   24.5000  -15.1900    0.0000 C   0  0  0  0  0  0  0  0  0  0  0  0
   23.3100  -15.8900    0.0000 C   0  0  0  0  0  0  0  0  0  0  0  0
   22.0500  -15.1900    0.0000 C   0  0  0  0  0  0  0  0  0  0  0  0
   25.6900  -15.8900    0.0000 O   0  0  0  0  0  0  0  0  0  0  0  0
   25.6900  -17.2900    0.0000 C   0  0  0  0  0  0  0  0  0  0  0  0
   26.8800  -17.9900    0.0000 C   0  0  0  0  0  0  0  0  0  0  0  0
   26.8800  -19.3900    0.0000 N   0  0  0  0  0  0  0  0  0  0  0  0
   28.0700  -20.0900    0.0000 C   0  0  0  0  0  0  0  0  0  0  0  0
   25.6900  -20.0900    0.0000 C   0  0  0  0  0  0  0  0  0  0  0  0
   24.5000  -19.3900    0.0000 C   0  0  0  0  0  0  0  0  0  0  0  0
   23.3100  -20.0900    0.0000 C   0  0  0  0  0  0  0  0  0  0  0  0
   22.1200  -19.3900    0.0000 C   0  0  0  0  0  0  0  0  0  0  0  0
   20.9300  -20.0900    0.0000 C   0  0  0  0  0  0  0  0  0  0  0  0
   19.7400  -19.3900    0.0000 C   0  0  0  0  0  0  0  0  0  0  0  0
   29.2600  -19.3900    0.0000 C   0  0  0  0  0  0  0  0  0  0  0  0
   30.4500  -20.0900    0.0000 C   0  0  0  0  0  0  0  0  0  0  0  0
   31.6400  -19.3900    0.0000 C   0  0  0  0  0  0  0  0  0  0  0  0
   32.8300  -20.0900    0.0000 C   0  0  0  0  0  0  0  0  0  0  0  0
   34.0200  -19.3900    0.0000 C   0  0  0  0  0  0  0  0  0  0  0  0
   35.2100  -20.0900    0.0000 O   0  0  0  0  0  0  0  0  0  0  0  0
   29.2600  -17.9900    0.0000 O   0  0  0  0  0  0  0  0  0  0  0  0
   30.4500  -21.4900    0.0000 O   0  0  0  0  0  0  0  0  0  0  0  0
   31.6400  -17.9900    0.0000 O   0  0  0  0  0  0  0  0  0  0  0  0
   32.8300  -21.4900    0.0000 O   0  0  0  0  0  0  0  0  0  0  0  0
  1  2  2  0     0  0
  2  3  1  0     0  0
  3  4  2  0     0  0
  4  5  1  0     0  0
  5  6  2  0     0  0
  1  6  1  0     0  0
  1  7  1  0     0  0
  2  8  1  0     0  0
  4  9  1  0     0  0
  5 10  1  0     0  0
 10 11  1  0     0  0
 10 12  2  0     0  0
 11 13  1  0     0  0
 13 14  1  0     0  0
 13 15  2  0     0  0
 14 16  1  0     0  0
 16 17  1  0     0  0
 17 18  1  0     0  0
 18 19  1  0     0  0
 19 20  1  0     0  0
 20 21  2  0     0  0
 21 22  1  0     0  0
 22 23  2  0     0  0
 23 24  1  0     0  0
 24 25  2  0     0  0
 20 25  1  0     0  0
 23 26  1  0     0  0
 26 27  1  0     0  0
 27 28  1  0     0  0
 28 29  1  0     0  0
 29 30  1  0     0  0
 29 31  1  0     0  0
 31 32  1  0     0  0
 32 33  1  0     0  0
 33 34  1  0     0  0
 34 35  1  0     0  0
 35 36  1  0     0  0
 30 37  1  0     0  0
 37 38  1  0     0  0
 38 39  1  0     0  0
 39 40  1  0     0  0
 40 41  1  0     0  0
 41 42  1  0     0  0
 37 43  1  6     0  0
 38 44  1  6     0  0
 39 45  1  6     0  0
 40 46  1  1     0  0
M  END
