 
 
 
 37 39  0  0  1  0  0  0  0  0999 V2000
   21.4428  -14.8947    0.0000 C   0  0  0  0  0  0  0  0  0  0  0  0
   21.4323  -16.2971    0.0000 C   0  0  0  0  0  0  0  0  0  0  0  0
   20.2349  -16.9895    0.0000 C   0  0  0  0  0  0  0  0  0  0  0  0
   18.9780  -16.2787    0.0000 C   0  0  0  0  0  0  0  0  0  0  0  0
   18.9884  -14.8763    0.0000 N   0  0  0  0  0  0  0  0  0  0  0  0
   20.2560  -14.1845    0.0000 C   0  0  0  0  0  0  0  0  0  0  0  0
   20.2244  -18.3919    0.0000 C   0  0  0  0  0  0  0  0  0  0  0  0
   17.7806  -16.9710    0.0000 C   0  0  0  0  0  0  0  0  0  0  0  0
   21.4112  -19.1021    0.0000 C   0  0  0  0  0  0  0  0  0  0  0  0
   21.4007  -20.5046    0.0000 C   0  0  0  0  0  0  0  0  0  0  0  0
   20.1669  -21.2567    0.0000 C   0  0  0  0  0  0  0  0  0  0  0  0
   18.9464  -20.4861    0.0000 C   0  0  0  0  0  0  0  0  0  0  0  0
   18.9569  -19.0837    0.0000 C   0  0  0  0  0  0  0  0  0  0  0  0
   17.7701  -18.3735    0.0000 C   0  0  0  0  0  0  0  0  0  0  0  0
   16.5026  -19.0653    0.0000 C   0  0  0  0  0  0  0  0  0  0  0  0
   15.3158  -18.3551    0.0000 C   0  0  0  0  0  0  0  0  0  0  0  0
   15.3263  -16.9526    0.0000 C   0  0  0  0  0  0  0  0  0  0  0  0
   16.5236  -16.2603    0.0000 C   0  0  0  0  0  0  0  0  0  0  0  0
   14.1184  -19.0474    0.0000 Cl  0  0  0  0  0  0  0  0  0  0  0  0
   17.8016  -14.1661    0.0000 C   0  0  0  0  0  0  0  0  0  0  0  0
   16.6043  -14.8584    0.0000 C   0  0  0  0  0  0  0  0  0  0  0  0
   17.8121  -12.7637    0.0000 C   0  0  0  0  0  0  0  0  0  0  0  0
   19.0095  -12.0713    0.0000 C   0  0  0  0  0  0  0  0  0  0  0  0
   16.6253  -12.0534    0.0000 C   0  0  0  0  0  0  0  0  0  0  0  0
   15.4175  -14.1482    0.0000 S   0  0  0  0  0  0  0  0  0  0  0  0
   14.2201  -14.8405    0.0000 C   0  0  0  0  0  0  0  0  0  0  0  0
   13.0333  -14.1303    0.0000 C   0  0  0  0  0  0  0  0  0  0  0  0
   14.2096  -16.2429    0.0000 C   0  0  0  0  0  0  0  0  0  0  0  0
   16.1276  -12.9613    0.0000 O   0  0  0  0  0  0  0  0  0  0  0  0
   14.7252  -12.9509    0.0000 O   0  0  0  0  0  0  0  0  0  0  0  0
   20.1964  -12.7821    0.0000 O   0  0  0  0  0  0  0  0  0  0  0  0
   22.6402  -14.2024    0.0000 C   0  0  0  0  0  0  0  0  0  0  0  0
   23.8270  -14.9126    0.0000 C   0  0  0  0  0  0  0  0  0  0  0  0
   25.0243  -14.2202    0.0000 O   0  0  0  0  0  0  0  0  0  0  0  0
   23.8164  -16.3150    0.0000 O   0  0  0  0  0  0  0  0  0  0  0  0
   21.4533  -13.4922    0.0000 C   0  0  0  0  0  0  0  0  0  0  0  0
   17.7263  -21.1529    0.0000 Cl  0  0  0  0  0  0  0  0  0  0  0  0
  1  2  1  0     0  0
  2  3  1  0     0  0
  3  4  1  0     0  0
  4  5  1  0     0  0
  5  6  1  0     0  0
  1  6  1  0     0  0
  3  7  1  6     0  0
  4  8  1  1     0  0
  7  9  2  0     0  0
  9 10  1  0     0  0
 10 11  2  0     0  0
 11 12  1  0     0  0
 12 13  2  0     0  0
  7 13  1  0     0  0
  8 14  2  0     0  0
 14 15  1  0     0  0
 15 16  2  0     0  0
 16 17  1  0     0  0
 17 18  2  0     0  0
  8 18  1  0     0  0
 16 19  1  0     0  0
  5 20  1  0     0  0
 20 21  1  0     0  0
 20 22  1  6     0  0
 22 23  1  0     0  0
 22 24  1  0     0  0
 21 25  1  0     0  0
 25 26  1  0     0  0
 26 27  1  0     0  0
 26 28  1  0     0  0
 25 29  2  0     0  0
 25 30  2  0     0  0
  6 31  2  0     0  0
  1 32  1  0     0  0
 32 33  1  0     0  0
 33 34  1  0     0  0
 33 35  2  0     0  0
  1 36  1  6     0  0
 12 37  1  0     0  0
M  END
