 
 
 
 29 31  0  0  1  0  0  0  0  0999 V2000
   16.1072  -15.6191    0.0000 C   0  0  0  0  0  0  0  0  0  0  0  0
   16.1072  -17.0137    0.0000 C   0  0  0  0  0  0  0  0  0  0  0  0
   17.2926  -17.7807    0.0000 C   0  0  0  0  0  0  0  0  0  0  0  0
   18.5477  -17.0137    0.0000 C   0  0  0  0  0  0  0  0  0  0  0  0
   18.5477  -15.6191    0.0000 C   0  0  0  0  0  0  0  0  0  0  0  0
   17.2926  -14.9219    0.0000 C   0  0  0  0  0  0  0  0  0  0  0  0
   19.8028  -17.7807    0.0000 C   0  0  0  0  0  0  0  0  0  0  0  0
   20.9881  -17.0137    0.0000 C   0  0  0  0  0  0  0  0  0  0  0  0
   20.9881  -15.6191    0.0000 C   0  0  0  0  0  0  0  0  0  0  0  0
   19.8028  -14.9219    0.0000 C   0  0  0  0  0  0  0  0  0  0  0  0
   22.1735  -14.9219    0.0000 C   0  0  0  0  0  0  0  0  0  0  0  0
   14.9219  -17.7807    0.0000 C   0  0  0  0  0  0  0  0  0  0  0  0
   13.7365  -16.9440    0.0000 C   0  0  0  0  0  0  0  0  0  0  0  0
   12.6906  -17.8504    0.0000 C   0  0  0  0  0  0  0  0  0  0  0  0
   13.1090  -19.1055    0.0000 C   0  0  0  0  0  0  0  0  0  0  0  0
   14.5035  -19.1055    0.0000 C   0  0  0  0  0  0  0  0  0  0  0  0
   12.3420  -16.4559    0.0000 N   0  0  0  0  0  0  0  0  0  0  0  0
   23.3589  -15.6191    0.0000 C   0  0  0  0  0  0  0  0  0  0  0  0
   24.5442  -14.9219    0.0000 C   0  0  0  0  0  0  0  0  0  0  0  0
   25.7296  -15.6191    0.0000 C   0  0  0  0  0  0  0  0  0  0  0  0
   26.9847  -14.9219    0.0000 C   0  0  0  0  0  0  0  0  0  0  0  0
   26.9847  -13.5273    0.0000 C   0  0  0  0  0  0  0  0  0  0  0  0
   25.7296  -12.8301    0.0000 C   0  0  0  0  0  0  0  0  0  0  0  0
   24.5442  -13.5273    0.0000 C   0  0  0  0  0  0  0  0  0  0  0  0
   23.3589  -12.8301    0.0000 O   0  0  0  0  0  0  0  0  0  0  0  0
   22.1735  -13.5273    0.0000 C   0  0  0  0  0  0  0  0  0  0  0  0
   10.3199  -17.8504    0.0000 O   0  0  0  0  0  0  0  0  0  0  0  0
   11.5052  -18.5477    0.0000 C   0  0  0  0  0  0  0  0  0  0  0  0
   26.5300  -18.9000    0.0000 Cl  0  0  0  0  0  0  0  0  0  0  0  0
  1  2  2  0     0  0
  2  3  1  0     0  0
  3  4  2  0     0  0
  4  5  1  0     0  0
  5  6  2  0     0  0
  1  6  1  0     0  0
  4  7  1  0     0  0
  7  8  1  0     0  0
  8  9  1  0     0  0
  9 10  1  0     0  0
  5 10  1  0     0  0
  9 11  1  6     0  0
 12  2  1  1     0  0
 12 13  1  0     0  0
 13 14  1  0     0  0
 14 15  1  0     0  0
 15 16  1  0     0  0
 12 16  1  0     0  0
 14 17  1  1     0  0
 11 18  1  0     0  0
 18 19  1  0     0  0
 19 20  2  0     0  0
 20 21  1  0     0  0
 21 22  2  0     0  0
 22 23  1  0     0  0
 23 24  2  0     0  0
 19 24  1  0     0  0
 24 25  1  0     0  0
 25 26  1  0     0  0
 27 28  1  0     0  0
 14 28  1  6     0  0
M  END
