 
 
 
 33 37  0  0  0  0  0  0  0  0999 V2000
   14.3552  -14.7097    0.0000 C   0  0  0  0  0  0  0  0  0  0  0  0
   14.3552  -16.1107    0.0000 C   0  0  0  0  0  0  0  0  0  0  0  0
   15.5685  -16.8112    0.0000 C   0  0  0  0  0  0  0  0  0  0  0  0
   16.7820  -16.1107    0.0000 C   0  0  0  0  0  0  0  0  0  0  0  0
   16.7820  -14.7097    0.0000 C   0  0  0  0  0  0  0  0  0  0  0  0
   15.5685  -14.0091    0.0000 C   0  0  0  0  0  0  0  0  0  0  0  0
   13.1419  -16.8112    0.0000 C   0  0  0  0  0  0  0  0  0  0  0  0
   18.0140  -16.8223    0.0000 C   0  0  0  0  0  0  0  0  0  0  0  0
   11.8095  -16.4542    0.0000 C   0  0  0  0  0  0  0  0  0  0  0  0
   11.4524  -17.7865    0.0000 C   0  0  0  0  0  0  0  0  0  0  0  0
   12.7847  -18.1436    0.0000 C   0  0  0  0  0  0  0  0  0  0  0  0
   13.1419  -14.0091    0.0000 C   0  0  0  0  0  0  0  0  0  0  0  0
   12.9957  -12.6183    0.0000 N   0  0  0  0  0  0  0  0  0  0  0  0
   11.6278  -12.3275    0.0000 N   0  0  0  0  0  0  0  0  0  0  0  0
   10.9284  -13.5386    0.0000 C   0  0  0  0  0  0  0  0  0  0  0  0
   11.8643  -14.5780    0.0000 N   0  0  0  0  0  0  0  0  0  0  0  0
    9.5315  -13.6854    0.0000 C   0  0  0  0  0  0  0  0  0  0  0  0
   18.0140  -13.9981    0.0000 C   0  0  0  0  0  0  0  0  0  0  0  0
   19.2201  -14.6944    0.0000 N   0  0  0  0  0  0  0  0  0  0  0  0
   18.0137  -12.6082    0.0000 O   0  0  0  0  0  0  0  0  0  0  0  0
   19.2205  -16.1103    0.0000 C   0  0  0  0  0  0  0  0  0  0  0  0
   20.4340  -16.8105    0.0000 C   0  0  0  0  0  0  0  0  0  0  0  0
   21.6472  -16.1096    0.0000 C   0  0  0  0  0  0  0  0  0  0  0  0
   21.6467  -14.6936    0.0000 C   0  0  0  0  0  0  0  0  0  0  0  0
   20.4332  -13.9934    0.0000 C   0  0  0  0  0  0  0  0  0  0  0  0
   22.8563  -16.8072    0.0000 C   0  0  0  0  0  0  0  0  0  0  0  0
   22.8568  -18.2121    0.0000 C   0  0  0  0  0  0  0  0  0  0  0  0
   24.0705  -18.9122    0.0000 C   0  0  0  0  0  0  0  0  0  0  0  0
   25.2836  -18.2113    0.0000 C   0  0  0  0  0  0  0  0  0  0  0  0
   25.2831  -16.8064    0.0000 C   0  0  0  0  0  0  0  0  0  0  0  0
   24.0695  -16.1063    0.0000 C   0  0  0  0  0  0  0  0  0  0  0  0
   26.4975  -18.9116    0.0000 C   0  0  0  0  0  0  0  0  0  0  0  0
   27.7109  -19.6122    0.0000 N   0  0  0  0  0  0  0  0  0  0  0  0
  1  2  2  0     0  0
  2  3  1  0     0  0
  3  4  2  0     0  0
  4  5  1  0     0  0
  5  6  2  0     0  0
  1  6  1  0     0  0
  2  7  1  0     0  0
  4  8  1  0     0  0
  7  9  1  0     0  0
  9 10  1  0     0  0
 10 11  1  0     0  0
  7 11  1  0     0  0
  1 12  1  0     0  0
 12 13  2  0     0  0
 13 14  1  0     0  0
 14 15  1  0     0  0
 15 16  2  0     0  0
 12 16  1  0     0  0
 15 17  1  0     0  0
  5 18  1  0     0  0
 18 19  1  0     0  0
 18 20  2  0     0  0
 19 21  1  0     0  0
 21 22  1  0     0  0
 22 23  1  0     0  0
 23 24  1  0     0  0
 24 25  1  0     0  0
 19 25  1  0     0  0
 23 26  1  0     0  0
 26 27  2  0     0  0
 27 28  1  0     0  0
 28 29  2  0     0  0
 29 30  1  0     0  0
 30 31  2  0     0  0
 26 31  1  0     0  0
 29 32  1  0     0  0
 32 33  3  0     0  0
M  END
