 
 
 
 58 65  0  0  1  0  0  0  0  0999 V2000
    5.6700  -13.3000    0.0000 C   0  0  0  0  0  0  0  0  0  0  0  0
    5.6700  -14.7000    0.0000 C   0  0  0  0  0  0  0  0  0  0  0  0
    6.8824  -15.4000    0.0000 C   0  0  0  0  0  0  0  0  0  0  0  0
    8.0949  -14.7000    0.0000 C   0  0  0  0  0  0  0  0  0  0  0  0
    8.0949  -13.3000    0.0000 C   0  0  0  0  0  0  0  0  0  0  0  0
    6.8824  -12.6000    0.0000 C   0  0  0  0  0  0  0  0  0  0  0  0
    4.4576  -12.6000    0.0000 C   0  0  0  0  0  0  0  0  0  0  0  0
    3.2451  -11.9000    0.0000 N   0  0  0  0  0  0  0  0  0  0  0  0
    4.4576  -15.4000    0.0000 Cl  0  0  0  0  0  0  0  0  0  0  0  0
    9.3260  -15.4110    0.0000 O   0  0  0  0  0  0  0  0  0  0  0  0
   10.5312  -14.7153    0.0000 C   0  0  0  0  0  0  0  0  0  0  0  0
   11.7135  -15.3981    0.0000 C   0  0  0  0  0  0  0  0  0  0  0  0
   12.9260  -14.6983    0.0000 C   0  0  0  0  0  0  0  0  0  0  0  0
   12.9262  -13.2983    0.0000 C   0  0  0  0  0  0  0  0  0  0  0  0
   11.7438  -12.6155    0.0000 C   0  0  0  0  0  0  0  0  0  0  0  0
   10.5313  -13.3153    0.0000 C   0  0  0  0  0  0  0  0  0  0  0  0
   14.1556  -12.5884    0.0000 N   0  0  0  0  0  0  0  0  0  0  0  0
   15.3613  -13.2845    0.0000 C   0  0  0  0  0  0  0  0  0  0  0  0
   16.5435  -12.6019    0.0000 C   0  0  0  0  0  0  0  0  0  0  0  0
   15.3616  -14.6996    0.0000 O   0  0  0  0  0  0  0  0  0  0  0  0
   17.7374  -13.2914    0.0000 C   0  0  0  0  0  0  0  0  0  0  0  0
   18.9499  -12.5915    0.0000 C   0  0  0  0  0  0  0  0  0  0  0  0
   18.9501  -11.1915    0.0000 C   0  0  0  0  0  0  0  0  0  0  0  0
   17.7562  -10.5020    0.0000 N   0  0  0  0  0  0  0  0  0  0  0  0
   16.5437  -11.2019    0.0000 N   0  0  0  0  0  0  0  0  0  0  0  0
   20.1737  -10.4850    0.0000 N   0  0  0  0  0  0  0  0  0  0  0  0
   21.3822  -11.1828    0.0000 C   0  0  0  0  0  0  0  0  0  0  0  0
   22.5946  -10.4829    0.0000 C   0  0  0  0  0  0  0  0  0  0  0  0
   22.5947   -9.0829    0.0000 C   0  0  0  0  0  0  0  0  0  0  0  0
   21.3862   -8.3851    0.0000 C   0  0  0  0  0  0  0  0  0  0  0  0
   20.1737   -9.0850    0.0000 C   0  0  0  0  0  0  0  0  0  0  0  0
   23.8110   -8.3806    0.0000 C   0  0  0  0  0  0  0  0  0  0  0  0
   25.0234   -9.0806    0.0000 N   0  0  0  0  0  0  0  0  0  0  0  0
   25.0239  -10.4996    0.0000 C   0  0  0  0  0  0  0  0  0  0  0  0
   26.2366  -11.1992    0.0000 C   0  0  0  0  0  0  0  0  0  0  0  0
   27.4488  -10.4988    0.0000 N   0  0  0  0  0  0  0  0  0  0  0  0
   27.4483   -9.0798    0.0000 C   0  0  0  0  0  0  0  0  0  0  0  0
   26.2356   -8.3802    0.0000 C   0  0  0  0  0  0  0  0  0  0  0  0
   28.6554  -11.1949    0.0000 C   0  0  0  0  0  0  0  0  0  0  0  0
   28.6559  -12.5998    0.0000 C   0  0  0  0  0  0  0  0  0  0  0  0
   29.8686  -13.2993    0.0000 C   0  0  0  0  0  0  0  0  0  0  0  0
   31.0808  -12.5989    0.0000 C   0  0  0  0  0  0  0  0  0  0  0  0
   31.0802  -11.1940    0.0000 C   0  0  0  0  0  0  0  0  0  0  0  0
   29.8675  -10.4944    0.0000 C   0  0  0  0  0  0  0  0  0  0  0  0
   32.4170  -13.0325    0.0000 C   0  0  0  0  0  0  0  0  0  0  0  0
   33.2424  -11.8956    0.0000 N   0  0  0  0  0  0  0  0  0  0  0  0
   32.4162  -10.7594    0.0000 C   0  0  0  0  0  0  0  0  0  0  0  0
   34.6500  -11.8951    0.0000 C   0  0  0  0  0  0  0  0  0  0  0  0
   35.3526  -13.1109    0.0000 C   0  0  0  0  0  0  0  0  0  0  0  0
   36.7526  -13.1104    0.0000 C   0  0  0  0  0  0  0  0  0  0  0  0
   37.4521  -11.8977    0.0000 C   0  0  0  0  0  0  0  0  0  0  0  0
   36.7495  -10.6818    0.0000 N   0  0  0  0  0  0  0  0  0  0  0  0
   35.3495  -10.6823    0.0000 C   0  0  0  0  0  0  0  0  0  0  0  0
   38.8500  -11.8971    0.0000 O   0  0  0  0  0  0  0  0  0  0  0  0
   34.6610   -9.4913    0.0000 O   0  0  0  0  0  0  0  0  0  0  0  0
   32.8458  -14.3504    0.0000 O   0  0  0  0  0  0  0  0  0  0  0  0
   32.8417   -9.4482    0.0000 O   0  0  0  0  0  0  0  0  0  0  0  0
   27.4244  -13.3116    0.0000 F   0  0  0  0  0  0  0  0  0  0  0  0
  1  2  2  0     0  0
  2  3  1  0     0  0
  3  4  2  0     0  0
  4  5  1  0     0  0
  5  6  2  0     0  0
  1  6  1  0     0  0
  1  7  1  0     0  0
  7  8  3  0     0  0
  2  9  1  0     0  0
  4 10  1  0     0  0
 11 10  1  1     0  0
 11 12  1  0     0  0
 12 13  1  0     0  0
 13 14  1  0     0  0
 14 15  1  0     0  0
 15 16  1  0     0  0
 11 16  1  0     0  0
 14 17  1  6     0  0
 17 18  1  0     0  0
 18 19  1  0     0  0
 18 20  2  0     0  0
 19 21  2  0     0  0
 21 22  1  0     0  0
 22 23  2  0     0  0
 23 24  1  0     0  0
 24 25  2  0     0  0
 19 25  1  0     0  0
 23 26  1  0     0  0
 26 27  1  0     0  0
 27 28  1  0     0  0
 28 29  1  0     0  0
 29 30  1  0     0  0
 30 31  1  0     0  0
 26 31  1  0     0  0
 29 32  1  0     0  0
 32 33  1  0     0  0
 33 34  1  0     0  0
 34 35  1  0     0  0
 35 36  1  0     0  0
 36 37  1  0     0  0
 37 38  1  0     0  0
 33 38  1  0     0  0
 36 39  1  0     0  0
 39 40  2  0     0  0
 40 41  1  0     0  0
 41 42  2  0     0  0
 42 43  1  0     0  0
 43 44  2  0     0  0
 39 44  1  0     0  0
 42 45  1  0     0  0
 45 46  1  0     0  0
 46 47  1  0     0  0
 43 47  1  0     0  0
 46 48  1  0     0  0
 48 49  1  0     0  0
 49 50  1  0     0  0
 50 51  1  0     0  0
 51 52  1  0     0  0
 52 53  1  0     0  0
 48 53  1  0     0  0
 51 54  2  0     0  0
 53 55  2  0     0  0
 45 56  2  0     0  0
 47 57  2  0     0  0
 40 58  1  0     0  0
M  END
