 
 
 
 33 36  0  0  1  0  0  0  0  0999 V2000
   21.5933  -16.2637    0.0000 C   0  0  0  0  0  0  0  0  0  0  0  0
   21.5933  -17.6658    0.0000 C   0  0  0  0  0  0  0  0  0  0  0  0
   22.7851  -18.3668    0.0000 C   0  0  0  0  0  0  0  0  0  0  0  0
   24.0470  -17.6658    0.0000 C   0  0  0  0  0  0  0  0  0  0  0  0
   24.0470  -16.2637    0.0000 C   0  0  0  0  0  0  0  0  0  0  0  0
   22.7851  -15.5626    0.0000 C   0  0  0  0  0  0  0  0  0  0  0  0
   25.2388  -18.3668    0.0000 O   0  0  0  0  0  0  0  0  0  0  0  0
   26.4305  -17.6658    0.0000 C   0  0  0  0  0  0  0  0  0  0  0  0
   22.7851  -19.7689    0.0000 C   0  0  0  0  0  0  0  0  0  0  0  0
   22.7851  -14.1605    0.0000 Cl  0  0  0  0  0  0  0  0  0  0  0  0
   20.4015  -15.5626    0.0000 C   0  0  0  0  0  0  0  0  0  0  0  0
   19.9108  -14.2306    0.0000 C   0  0  0  0  0  0  0  0  0  0  0  0
   18.5087  -14.2306    0.0000 S   0  0  0  0  0  0  0  0  0  0  0  0
   18.0881  -15.5626    0.0000 C   0  0  0  0  0  0  0  0  0  0  0  0
   19.2799  -16.4039    0.0000 N   0  0  0  0  0  0  0  0  0  0  0  0
   15.7045  -15.5626    0.0000 C   0  0  0  0  0  0  0  0  0  0  0  0
   16.8963  -16.2637    0.0000 N   0  0  0  0  0  0  0  0  0  0  0  0
   16.8963  -17.6658    0.0000 C   0  0  0  0  0  0  0  0  0  0  0  0
   20.6820  -13.1090    0.0000 C   0  0  0  0  0  0  0  0  0  0  0  0
   18.0881  -18.3668    0.0000 C   0  0  0  0  0  0  0  0  0  0  0  0
   19.3500  -19.0679    0.0000 C   0  0  0  0  0  0  0  0  0  0  0  0
   14.5127  -16.2637    0.0000 C   0  0  0  0  0  0  0  0  0  0  0  0
   15.7045  -14.1605    0.0000 C   0  0  0  0  0  0  0  0  0  0  0  0
   14.5127  -13.4595    0.0000 C   0  0  0  0  0  0  0  0  0  0  0  0
   13.3210  -15.5626    0.0000 C   0  0  0  0  0  0  0  0  0  0  0  0
   12.0591  -16.2637    0.0000 C   0  0  0  0  0  0  0  0  0  0  0  0
   12.0591  -17.6658    0.0000 C   0  0  0  0  0  0  0  0  0  0  0  0
   13.2508  -18.3668    0.0000 C   0  0  0  0  0  0  0  0  0  0  0  0
   14.5127  -17.6658    0.0000 C   0  0  0  0  0  0  0  0  0  0  0  0
   10.8673  -15.5626    0.0000 F   0  0  0  0  0  0  0  0  0  0  0  0
   10.8673  -18.3668    0.0000 C   0  0  0  0  0  0  0  0  0  0  0  0
   13.1106  -13.4595    0.0000 C   0  0  0  0  0  0  0  0  0  0  0  0
   13.8117  -12.2677    0.0000 C   0  0  0  0  0  0  0  0  0  0  0  0
  1  2  2  0     0  0
  2  3  1  0     0  0
  3  4  2  0     0  0
  4  5  1  0     0  0
  5  6  2  0     0  0
  1  6  1  0     0  0
  4  7  1  0     0  0
  7  8  1  0     0  0
  3  9  1  0     0  0
  6 10  1  0     0  0
  1 11  1  0     0  0
 11 12  2  0     0  0
 12 13  1  0     0  0
 13 14  1  0     0  0
 14 15  2  0     0  0
 11 15  1  0     0  0
 16 17  1  0     0  0
 17 14  1  0     0  0
 17 18  1  0     0  0
 12 19  1  0     0  0
 18 20  1  0     0  0
 20 21  3  0     0  0
 16 22  1  0     0  0
 16 23  1  6     0  0
 23 24  1  0     0  0
 22 25  2  0     0  0
 25 26  1  0     0  0
 26 27  2  0     0  0
 27 28  1  0     0  0
 28 29  2  0     0  0
 22 29  1  0     0  0
 26 30  1  0     0  0
 27 31  1  0     0  0
 32 24  1  0     0  0
 24 33  1  0     0  0
 33 32  1  0     0  0
M  END
