 
 
 
 36 39  0  0  0  0  0  0  0  0999 V2000
    9.0300  -14.6300    0.0000 C   0  0  0  0  0  0  0  0  0  0  0  0
    9.0300  -16.0300    0.0000 C   0  0  0  0  0  0  0  0  0  0  0  0
   10.2200  -16.7300    0.0000 C   0  0  0  0  0  0  0  0  0  0  0  0
   11.4800  -16.0300    0.0000 N   0  0  0  0  0  0  0  0  0  0  0  0
   11.4800  -14.6300    0.0000 C   0  0  0  0  0  0  0  0  0  0  0  0
   10.2200  -13.9300    0.0000 C   0  0  0  0  0  0  0  0  0  0  0  0
   12.6700  -13.9300    0.0000 O   0  0  0  0  0  0  0  0  0  0  0  0
   12.6700  -16.7300    0.0000 C   0  0  0  0  0  0  0  0  0  0  0  0
   13.8600  -16.0300    0.0000 C   0  0  0  0  0  0  0  0  0  0  0  0
   15.0500  -16.7300    0.0000 C   0  0  0  0  0  0  0  0  0  0  0  0
   16.3100  -16.0300    0.0000 C   0  0  0  0  0  0  0  0  0  0  0  0
   16.3100  -14.6300    0.0000 C   0  0  0  0  0  0  0  0  0  0  0  0
   15.1200  -13.9300    0.0000 C   0  0  0  0  0  0  0  0  0  0  0  0
   13.8600  -14.6300    0.0000 C   0  0  0  0  0  0  0  0  0  0  0  0
   17.5000  -13.9300    0.0000 C   0  0  0  0  0  0  0  0  0  0  0  0
   18.6900  -14.6300    0.0000 N   0  0  0  0  0  0  0  0  0  0  0  0
   19.1100  -15.9600    0.0000 N   0  0  0  0  0  0  0  0  0  0  0  0
   20.5800  -15.9600    0.0000 C   0  0  0  0  0  0  0  0  0  0  0  0
   21.0000  -14.6300    0.0000 C   0  0  0  0  0  0  0  0  0  0  0  0
   19.8800  -13.7900    0.0000 C   0  0  0  0  0  0  0  0  0  0  0  0
   22.1900  -13.9300    0.0000 C   0  0  0  0  0  0  0  0  0  0  0  0
   23.3800  -14.6300    0.0000 N   0  0  0  0  0  0  0  0  0  0  0  0
   22.1900  -12.5300    0.0000 O   0  0  0  0  0  0  0  0  0  0  0  0
   24.5700  -13.9300    0.0000 C   0  0  0  0  0  0  0  0  0  0  0  0
   25.7600  -14.6300    0.0000 C   0  0  0  0  0  0  0  0  0  0  0  0
   25.7600  -16.0300    0.0000 C   0  0  0  0  0  0  0  0  0  0  0  0
   26.9500  -16.7300    0.0000 C   0  0  0  0  0  0  0  0  0  0  0  0
   28.2100  -16.0300    0.0000 C   0  0  0  0  0  0  0  0  0  0  0  0
   28.2100  -14.6300    0.0000 C   0  0  0  0  0  0  0  0  0  0  0  0
   27.0200  -13.9300    0.0000 N   0  0  0  0  0  0  0  0  0  0  0  0
   24.5700  -16.7300    0.0000 F   0  0  0  0  0  0  0  0  0  0  0  0
   26.9500  -18.1300    0.0000 O   0  0  0  0  0  0  0  0  0  0  0  0
   25.7600  -18.8300    0.0000 C   0  0  0  0  0  0  0  0  0  0  0  0
   21.4200  -17.0800    0.0000 C   0  0  0  0  0  0  0  0  0  0  0  0
   20.8600  -18.3400    0.0000 O   0  0  0  0  0  0  0  0  0  0  0  0
   21.7000  -19.4600    0.0000 C   0  0  0  0  0  0  0  0  0  0  0  0
  1  2  1  0     0  0
  2  3  2  0     0  0
  3  4  1  0     0  0
  4  5  1  0     0  0
  5  6  1  0     0  0
  1  6  2  0     0  0
  5  7  2  0     0  0
  4  8  1  0     0  0
  8  9  1  0     0  0
  9 10  2  0     0  0
 10 11  1  0     0  0
 11 12  2  0     0  0
 12 13  1  0     0  0
 13 14  2  0     0  0
  9 14  1  0     0  0
 12 15  1  0     0  0
 15 16  1  0     0  0
 16 17  1  0     0  0
 17 18  2  0     0  0
 18 19  1  0     0  0
 19 20  2  0     0  0
 16 20  1  0     0  0
 21 22  1  0     0  0
 21 19  1  0     0  0
 21 23  2  0     0  0
 22 24  1  0     0  0
 24 25  1  0     0  0
 25 26  2  0     0  0
 26 27  1  0     0  0
 27 28  2  0     0  0
 28 29  1  0     0  0
 29 30  2  0     0  0
 25 30  1  0     0  0
 26 31  1  0     0  0
 27 32  1  0     0  0
 32 33  1  0     0  0
 18 34  1  0     0  0
 34 35  1  0     0  0
 35 36  1  0     0  0
M  END
