 
 
 
 37 40  0  0  1  0  0  0  0  0999 V2000
   16.1786  -16.5988    0.0000 C   0  0  0  0  0  0  0  0  0  0  0  0
   17.5794  -16.5988    0.0000 C   0  0  0  0  0  0  0  0  0  0  0  0
   17.9996  -15.2681    0.0000 C   0  0  0  0  0  0  0  0  0  0  0  0
   16.8790  -14.4977    0.0000 O   0  0  0  0  0  0  0  0  0  0  0  0
   15.7584  -15.2681    0.0000 C   0  0  0  0  0  0  0  0  0  0  0  0
   20.3808  -16.6689    0.0000 N   0  0  0  0  0  0  0  0  0  0  0  0
   20.3808  -15.2681    0.0000 C   0  0  0  0  0  0  0  0  0  0  0  0
   19.1902  -14.5678    0.0000 N   0  0  0  0  0  0  0  0  0  0  0  0
   14.5678  -14.5678    0.0000 C   0  0  0  0  0  0  0  0  0  0  0  0
   13.3071  -15.2681    0.0000 O   0  0  0  0  0  0  0  0  0  0  0  0
   15.3382  -17.7194    0.0000 O   0  0  0  0  0  0  0  0  0  0  0  0
   21.5715  -17.3692    0.0000 C   0  0  0  0  0  0  0  0  0  0  0  0
   22.7621  -16.6689    0.0000 C   0  0  0  0  0  0  0  0  0  0  0  0
   22.7621  -15.2681    0.0000 C   0  0  0  0  0  0  0  0  0  0  0  0
   21.5715  -14.5678    0.0000 C   0  0  0  0  0  0  0  0  0  0  0  0
   19.6104  -13.2370    0.0000 C   0  0  0  0  0  0  0  0  0  0  0  0
   21.1513  -13.2370    0.0000 N   0  0  0  0  0  0  0  0  0  0  0  0
   21.5715  -18.7700    0.0000 Cl  0  0  0  0  0  0  0  0  0  0  0  0
   24.0228  -14.5678    0.0000 N   0  0  0  0  0  0  0  0  0  0  0  0
   25.2107  -15.2800    0.0000 C   0  0  0  0  0  0  0  0  0  0  0  0
   26.4347  -14.6000    0.0000 C   0  0  0  0  0  0  0  0  0  0  0  0
   25.1878  -16.6599    0.0000 C   0  0  0  0  0  0  0  0  0  0  0  0
   27.6674  -15.3387    0.0000 C   0  0  0  0  0  0  0  0  0  0  0  0
   28.8910  -14.6585    0.0000 C   0  0  0  0  0  0  0  0  0  0  0  0
   28.9138  -13.2587    0.0000 C   0  0  0  0  0  0  0  0  0  0  0  0
   27.6811  -12.5200    0.0000 C   0  0  0  0  0  0  0  0  0  0  0  0
   26.4574  -13.2002    0.0000 C   0  0  0  0  0  0  0  0  0  0  0  0
   25.2716  -12.4899    0.0000 F   0  0  0  0  0  0  0  0  0  0  0  0
   18.3994  -17.7178    0.0000 O   0  0  0  0  0  0  0  0  0  0  0  0
   12.0976  -14.5430    0.0000 P   0  0  0  0  0  0  0  0  0  0  0  0
   10.8762  -15.2216    0.0000 C   0  0  0  0  0  0  0  0  0  0  0  0
   12.1205  -13.1600    0.0000 O   0  0  0  0  0  0  0  0  0  0  0  0
    9.6421  -14.4822    0.0000 P   0  0  0  0  0  0  0  0  0  0  0  0
    8.4290  -15.1568    0.0000 O   0  0  0  0  0  0  0  0  0  0  0  0
    9.6647  -13.0900    0.0000 O   0  0  0  0  0  0  0  0  0  0  0  0
   12.0976  -15.9430    0.0000 O   0  0  0  0  0  0  0  0  0  0  0  0
    9.6421  -15.8822    0.0000 O   0  0  0  0  0  0  0  0  0  0  0  0
  1  2  1  0     0  0
  2  3  1  0     0  0
  3  4  1  0     0  0
  4  5  1  0     0  0
  1  5  1  0     0  0
  6  7  1  0     0  0
  7  8  1  0     0  0
  3  8  1  1     0  0
  5  9  1  1     0  0
  9 10  1  0     0  0
  1 11  1  6     0  0
  6 12  2  0     0  0
 12 13  1  0     0  0
 13 14  2  0     0  0
 14 15  1  0     0  0
  7 15  2  0     0  0
  8 16  1  0     0  0
 15 17  1  0     0  0
 16 17  2  0     0  0
 12 18  1  0     0  0
 14 19  1  0     0  0
 19 20  1  0     0  0
 20 21  1  0     0  0
 20 22  1  6     0  0
 21 23  2  0     0  0
 23 24  1  0     0  0
 24 25  2  0     0  0
 25 26  1  0     0  0
 26 27  2  0     0  0
 21 27  1  0     0  0
 27 28  1  0     0  0
  2 29  1  6     0  0
 10 30  1  0     0  0
 30 31  1  0     0  0
 30 32  2  0     0  0
 31 33  1  0     0  0
 33 34  1  0     0  0
 33 35  2  0     0  0
 30 36  1  0     0  0
 33 37  1  0     0  0
M  END
