 
 
 
 28 31  0  0  1  0  0  0  0  0999 V2000
    6.7200  -13.3700    0.0000 C   0  0  0  0  0  0  0  0  0  0  0  0
    6.7200  -14.7700    0.0000 C   0  0  0  0  0  0  0  0  0  0  0  0
    7.9100  -15.4700    0.0000 N   0  0  0  0  0  0  0  0  0  0  0  0
    9.1700  -14.7700    0.0000 C   0  0  0  0  0  0  0  0  0  0  0  0
    9.1700  -13.3700    0.0000 C   0  0  0  0  0  0  0  0  0  0  0  0
    7.9100  -12.6700    0.0000 C   0  0  0  0  0  0  0  0  0  0  0  0
   10.2900  -12.4600    0.0000 O   0  0  0  0  0  0  0  0  0  0  0  0
   11.6200  -12.8100    0.0000 C   0  0  0  0  0  0  0  0  0  0  0  0
   12.2500  -14.0700    0.0000 C   0  0  0  0  0  0  0  0  0  0  0  0
   11.6200  -15.3300    0.0000 C   0  0  0  0  0  0  0  0  0  0  0  0
   10.2900  -15.6100    0.0000 N   0  0  0  0  0  0  0  0  0  0  0  0
   10.0100  -17.0100    0.0000 C   0  0  0  0  0  0  0  0  0  0  0  0
   12.4600  -16.4500    0.0000 O   0  0  0  0  0  0  0  0  0  0  0  0
   13.6500  -14.0700    0.0000 N   0  0  0  0  0  0  0  0  0  0  0  0
   14.3500  -12.8800    0.0000 C   0  0  0  0  0  0  0  0  0  0  0  0
   15.7500  -12.8800    0.0000 C   0  0  0  0  0  0  0  0  0  0  0  0
   16.5900  -14.0000    0.0000 N   0  0  0  0  0  0  0  0  0  0  0  0
   17.9200  -13.5800    0.0000 C   0  0  0  0  0  0  0  0  0  0  0  0
   17.9200  -12.1800    0.0000 N   0  0  0  0  0  0  0  0  0  0  0  0
   16.5900  -11.6900    0.0000 N   0  0  0  0  0  0  0  0  0  0  0  0
   13.6500  -11.6900    0.0000 O   0  0  0  0  0  0  0  0  0  0  0  0
   19.1100  -14.2800    0.0000 C   0  0  0  0  0  0  0  0  0  0  0  0
   20.3000  -13.5800    0.0000 C   0  0  0  0  0  0  0  0  0  0  0  0
   21.5181  -14.2701    0.0000 C   0  0  0  0  0  0  0  0  0  0  0  0
   22.7248  -13.5603    0.0000 C   0  0  0  0  0  0  0  0  0  0  0  0
   22.7834  -12.1603    0.0000 C   0  0  0  0  0  0  0  0  0  0  0  0
   21.4953  -11.4702    0.0000 C   0  0  0  0  0  0  0  0  0  0  0  0
   20.2886  -12.1800    0.0000 C   0  0  0  0  0  0  0  0  0  0  0  0
  1  2  2  0     0  0
  2  3  1  0     0  0
  3  4  2  0     0  0
  4  5  1  0     0  0
  5  6  2  0     0  0
  1  6  1  0     0  0
  8  9  1  0     0  0
  9 10  1  0     0  0
  7  8  1  0     0  0
  4 11  1  0     0  0
  5  7  1  0     0  0
 10 11  1  0     0  0
 11 12  1  0     0  0
 10 13  2  0     0  0
  9 14  1  6     0  0
 14 15  1  0     0  0
 15 16  1  0     0  0
 16 17  2  0     0  0
 17 18  1  0     0  0
 18 19  2  0     0  0
 19 20  1  0     0  0
 16 20  1  0     0  0
 15 21  2  0     0  0
 18 22  1  0     0  0
 22 23  1  0     0  0
 23 24  2  0     0  0
 24 25  1  0     0  0
 25 26  2  0     0  0
 26 27  1  0     0  0
 27 28  2  0     0  0
 23 28  1  0     0  0
M  END
