 
 
 
 92 96  0  0  1  0  0  0  0  0999 V2000
   11.0540  -15.7415    0.0000 C   0  0  3  0  0  0  0  0  0  0  0  0
    9.8647  -16.3712    0.0000 N   0  0  0  0  0  0  0  0  0  0  0  0
   12.3134  -16.3712    0.0000 C   0  0  0  0  0  0  0  0  0  0  0  0
    8.6753  -15.7415    0.0000 C   0  0  0  0  0  0  0  0  0  0  0  0
   13.4328  -15.6716    0.0000 N   0  0  0  0  0  0  0  0  0  0  0  0
   12.3134  -17.7005    0.0000 O   0  0  0  0  0  0  0  0  0  0  0  0
    7.4860  -16.4411    0.0000 C   0  0  3  0  0  0  0  0  0  0  0  0
    8.6753  -14.2723    0.0000 O   0  0  0  0  0  0  0  0  0  0  0  0
   14.6221  -16.3012    0.0000 C   0  0  3  0  0  0  0  0  0  0  0  0
    6.2266  -15.7415    0.0000 N   0  0  0  0  0  0  0  0  0  0  0  0
   15.8814  -15.6716    0.0000 C   0  0  0  0  0  0  0  0  0  0  0  0
    5.0373  -16.4411    0.0000 C   0  0  0  0  0  0  0  0  0  0  0  0
   17.0708  -16.3012    0.0000 N   0  0  0  0  0  0  0  0  0  0  0  0
   15.8814  -14.2023    0.0000 O   0  0  0  0  0  0  0  0  0  0  0  0
    3.8479  -15.8115    0.0000 C   0  0  3  0  0  0  0  0  0  0  0  0
    5.0373  -17.8404    0.0000 O   0  0  0  0  0  0  0  0  0  0  0  0
   18.2602  -15.6016    0.0000 C   0  0  3  0  0  0  0  0  0  0  0  0
    2.5886  -16.2313    0.0000 C   0  0  0  0  0  0  0  0  0  0  0  0
    3.8479  -14.3423    0.0000 N   0  0  0  0  0  0  0  0  0  0  0  0
   18.2602  -14.2023    0.0000 C   0  0  0  0  0  0  0  0  0  0  0  0
   19.4495  -16.3012    0.0000 C   0  0  0  0  0  0  0  0  0  0  0  0
    1.7491  -15.0419    0.0000 C   0  0  0  0  0  0  0  0  0  0  0  0
    2.5886  -13.9925    0.0000 C   0  0  0  0  0  0  0  0  0  0  0  0
   19.3796  -13.5027    0.0000 C   0  0  0  0  0  0  0  0  0  0  0  0
   20.7088  -15.6016    0.0000 N   0  0  0  0  0  0  0  0  0  0  0  0
   19.4495  -17.7005    0.0000 O   0  0  0  0  0  0  0  0  0  0  0  0
    2.0989  -12.6632    0.0000 O   0  0  0  0  0  0  0  0  0  0  0  0
   20.7088  -14.1324    0.0000 C   0  0  0  0  0  0  0  0  0  0  0  0
   19.3796  -12.1035    0.0000 C   0  0  0  0  0  0  0  0  0  0  0  0
   21.9682  -16.3012    0.0000 C   0  0  3  0  0  0  0  0  0  0  0  0
   21.8982  -13.4328    0.0000 C   0  0  0  0  0  0  0  0  0  0  0  0
   20.6389  -11.4039    0.0000 C   0  0  0  0  0  0  0  0  0  0  0  0
   23.1575  -15.6016    0.0000 C   0  0  0  0  0  0  0  0  0  0  0  0
   21.8982  -12.1035    0.0000 C   0  0  0  0  0  0  0  0  0  0  0  0
   24.3469  -16.3012    0.0000 N   0  0  0  0  0  0  0  0  0  0  0  0
   23.1575  -14.1324    0.0000 O   0  0  0  0  0  0  0  0  0  0  0  0
   23.0176  -11.4039    0.0000 O   0  0  0  0  0  0  0  0  0  0  0  0
   25.5362  -15.6016    0.0000 C   0  0  3  0  0  0  0  0  0  0  0  0
   26.7256  -16.2313    0.0000 C   0  0  0  0  0  0  0  0  0  0  0  0
   27.9150  -15.5316    0.0000 N   0  0  0  0  0  0  0  0  0  0  0  0
   26.7256  -17.6305    0.0000 O   0  0  0  0  0  0  0  0  0  0  0  0
   29.1043  -16.2313    0.0000 C   0  0  3  0  0  0  0  0  0  0  0  0
   30.3636  -15.5316    0.0000 C   0  0  0  0  0  0  0  0  0  0  0  0
   29.1043  -17.6305    0.0000 C   0  0  0  0  0  0  0  0  0  0  0  0
   31.6230  -16.1613    0.0000 N   0  0  3  0  0  0  0  0  0  0  0  0
   30.3636  -14.0624    0.0000 O   0  0  0  0  0  0  0  0  0  0  0  0
   32.9522  -16.1613    0.0000 C   0  0  3  0  0  0  0  0  0  0  0  0
   31.2032  -17.4906    0.0000 C   0  0  0  0  0  0  0  0  0  0  0  0
   33.3720  -17.4906    0.0000 C   0  0  0  0  0  0  0  0  0  0  0  0
   34.2815  -15.4617    0.0000 C   0  0  0  0  0  0  0  0  0  0  0  0
   32.2526  -18.2602    0.0000 C   0  0  0  0  0  0  0  0  0  0  0  0
   35.5408  -16.2313    0.0000 N   0  0  0  0  0  0  0  0  0  0  0  0
   34.2815  -13.9225    0.0000 O   0  0  0  0  0  0  0  0  0  0  0  0
   11.0540  -14.2723    0.0000 C   0  0  0  0  0  0  0  0  0  0  0  0
   12.3833  -13.6426    0.0000 C   0  0  0  0  0  0  0  0  0  0  0  0
   12.8031  -12.3833    0.0000 C   0  0  0  0  0  0  0  0  0  0  0  0
   13.5027  -14.4122    0.0000 C   0  0  0  0  0  0  0  0  0  0  0  0
   14.1324  -12.3833    0.0000 C   0  0  0  0  0  0  0  0  0  0  0  0
   12.1035  -11.1940    0.0000 C   0  0  0  0  0  0  0  0  0  0  0  0
   14.6221  -13.6426    0.0000 N   0  0  0  0  0  0  0  0  0  0  0  0
   14.8320  -11.1240    0.0000 C   0  0  0  0  0  0  0  0  0  0  0  0
   12.8031   -9.9346    0.0000 C   0  0  0  0  0  0  0  0  0  0  0  0
   14.1324   -9.9346    0.0000 C   0  0  0  0  0  0  0  0  0  0  0  0
    7.4860  -17.8404    0.0000 C   0  0  0  0  0  0  0  0  0  0  0  0
    8.6753  -18.5400    0.0000 C   0  0  0  0  0  0  0  0  0  0  0  0
    8.6753  -19.9393    0.0000 C   0  0  0  0  0  0  0  0  0  0  0  0
    9.9346  -20.4290    0.0000 N   0  0  0  0  0  0  0  0  0  0  0  0
   10.7742  -19.3096    0.0000 C   0  0  0  0  0  0  0  0  0  0  0  0
   10.0746  -18.1202    0.0000 N   0  0  0  0  0  0  0  0  0  0  0  0
   14.6221  -17.7005    0.0000 C   0  0  0  0  0  0  0  0  0  0  0  0
   15.8814  -18.4001    0.0000 O   0  0  0  0  0  0  0  0  0  0  0  0
   21.9682  -17.7005    0.0000 C   0  0  0  0  0  0  0  0  0  0  0  0
   23.2275  -18.4001    0.0000 C   0  0  0  0  0  0  0  0  0  0  0  0
   24.4168  -17.6305    0.0000 C   0  0  0  0  0  0  0  0  0  0  0  0
   23.2275  -19.7993    0.0000 C   0  0  0  0  0  0  0  0  0  0  0  0
   25.5362  -14.1324    0.0000 C   0  0  0  0  0  0  0  0  0  0  0  0
   26.7256  -13.4328    0.0000 C   0  0  0  0  0  0  0  0  0  0  0  0
   27.9849  -14.2023    0.0000 C   0  0  0  0  0  0  0  0  0  0  0  0
   26.7256  -12.0335    0.0000 C   0  0  0  0  0  0  0  0  0  0  0  0
   36.8002  -15.5316    0.0000 C   0  0  0  0  0  0  0  0  0  0  0  0
   37.9895  -16.2313    0.0000 C   0  0  0  0  0  0  0  0  0  0  0  0
   30.3636  -18.3301    0.0000 C   0  0  0  0  0  0  0  0  0  0  0  0
   30.3636  -19.7993    0.0000 C   0  0  0  0  0  0  0  0  0  0  0  0
   29.1043  -20.4989    0.0000 N   0  0  0  0  0  0  0  0  0  0  0  0
   27.9150  -19.7993    0.0000 C   0  0  0  0  0  0  0  0  0  0  0  0
   26.7256  -20.4989    0.0000 N   0  0  0  0  0  0  0  0  0  0  0  0
   27.9150  -18.3301    0.0000 N   0  0  0  0  0  0  0  0  0  0  0  0
   36.9600  -20.5800    0.0000 S   0  0  0  0  0  0  0  0  0  0  0  0
   35.5600  -20.5800    0.0000 C   0  0  0  0  0  0  0  0  0  0  0  0
   38.3600  -20.5800    0.0000 O   0  0  0  0  0  0  0  0  0  0  0  0
   36.9600  -19.1800    0.0000 O   0  0  0  0  0  0  0  0  0  0  0  0
   36.9600  -21.9800    0.0000 O   0  0  0  0  0  0  0  0  0  0  0  0
  1  2  1  0     0  0
  1  3  1  0     0  0
  2  4  1  0     0  0
  3  5  1  0     0  0
  3  6  2  0     0  0
  4  7  1  0     0  0
  4  8  2  0     0  0
  5  9  1  0     0  0
  7 10  1  0     0  0
  9 11  1  0     0  0
 10 12  1  0     0  0
 11 13  1  0     0  0
 11 14  2  0     0  0
 15 12  1  6     0  0
 12 16  2  0     0  0
 13 17  1  0     0  0
 15 18  1  0     0  0
 15 19  1  0     0  0
 17 20  1  1     0  0
 17 21  1  0     0  0
 18 22  1  0     0  0
 19 23  1  0     0  0
 20 24  1  0     0  0
 21 25  1  0     0  0
 21 26  2  0     0  0
 23 27  2  0     0  0
 24 28  2  0     0  0
 24 29  1  0     0  0
 25 30  1  0     0  0
 28 31  1  0     0  0
 29 32  2  0     0  0
 30 33  1  0     0  0
 31 34  2  0     0  0
 33 35  1  0     0  0
 33 36  2  0     0  0
 34 37  1  0     0  0
 35 38  1  0     0  0
 38 39  1  0     0  0
 39 40  1  0     0  0
 39 41  2  0     0  0
 40 42  1  0     0  0
 42 43  1  0     0  0
 42 44  1  6     0  0
 43 45  1  0     0  0
 43 46  2  0     0  0
 45 47  1  0     0  0
 45 48  1  0     0  0
 47 49  1  0     0  0
 47 50  1  6     0  0
 48 51  1  0     0  0
 50 52  1  0     0  0
 50 53  2  0     0  0
 22 23  1  0     0  0
 32 34  1  0     0  0
 49 51  1  0     0  0
  1 54  1  1     0  0
 54 55  1  0     0  0
 55 56  1  0     0  0
 56 58  2  0     0  0
 56 59  1  0     0  0
 57 60  1  0     0  0
 58 61  1  0     0  0
 59 62  2  0     0  0
 61 63  2  0     0  0
 58 60  1  0     0  0
 62 63  1  0     0  0
 57 55  2  0     0  0
  7 64  1  6     0  0
 64 65  1  0     0  0
 65 66  2  0     0  0
 66 67  1  0     0  0
 67 68  2  0     0  0
 68 69  1  0     0  0
 69 65  1  0     0  0
  9 70  1  6     0  0
 70 71  1  0     0  0
 30 72  1  6     0  0
 72 73  1  0     0  0
 73 74  1  0     0  0
 73 75  1  0     0  0
 38 76  1  1     0  0
 76 77  1  0     0  0
 77 78  1  0     0  0
 77 79  1  0     0  0
 52 80  1  0     0  0
 80 81  1  0     0  0
 44 82  1  0     0  0
 82 83  1  0     0  0
 83 84  1  0     0  0
 84 85  1  0     0  0
 85 86  1  0     0  0
 85 87  2  0     0  0
 88 89  1  0     0  0
 88 90  1  0     0  0
 88 91  2  0     0  0
 88 92  2  0     0  0
M  END
