 
     RDKit          2D

 32 36  0  0  1  0  0  0  0  0999 V2000
   26.2749  -14.7048    0.0000 C   0  0  0  0  0  0  0  0  0  0  0  0
   26.2458  -13.3977    0.0000 C   0  0  0  0  0  0  0  0  0  0  0  0
   27.3733  -15.3667    0.0000 C   0  0  0  0  0  0  0  0  0  0  0  0
   25.1072  -15.3498    0.0000 C   0  0  0  0  0  0  0  0  0  0  0  0
   27.3733  -14.0373    0.0000 C   0  0  0  0  0  0  0  0  0  0  0  0
   25.1072  -12.7471    0.0000 C   0  0  0  0  0  0  0  0  0  0  0  0
   27.3789  -12.7471    0.0000 C   0  0  0  0  0  0  0  0  0  0  0  0
   28.5120  -14.7160    0.0000 C   0  0  0  0  0  0  0  0  0  0  0  0
   27.3676  -16.6736    0.0000 C   0  0  0  0  0  0  0  0  0  0  0  0
   23.8057  -13.9588    0.0000 O   0  0  0  0  0  0  0  0  0  0  0  0
   25.1014  -16.6569    0.0000 C   0  0  0  0  0  0  0  0  0  0  0  0
   29.6861  -14.0831    0.0000 C   0  0  0  0  0  0  0  0  0  0  0  0
   25.1072  -11.4290    0.0000 C   0  0  0  0  0  0  0  0  0  0  0  0
   28.5176  -13.4034    0.0000 C   0  0  0  0  0  0  0  0  0  0  0  0
   27.3789  -11.4290    0.0000 C   0  0  0  0  0  0  0  0  0  0  0  0
   29.6509  -15.3780    0.0000 N   0  0  0  0  0  0  0  0  0  0  0  0
   26.2289  -17.3188    0.0000 C   0  0  0  0  0  0  0  0  0  0  0  0
   23.9572  -17.3131    0.0000 O   0  0  0  0  0  0  0  0  0  0  0  0
   26.2514  -10.7725    0.0000 C   0  0  0  0  0  0  0  0  0  0  0  0
   23.9684  -10.7725    0.0000 O   0  0  0  0  0  0  0  0  0  0  0  0
   22.8297  -11.4290    0.0000 C   0  0  0  0  0  0  0  0  0  0  0  0
   31.0509  -15.3780    0.0000 C   0  0  0  0  0  0  0  0  0  0  0  0
   -1.0717   -0.2062    0.0000 C   0  0  0  0  0  0  0  0  0  0  0  0
   -1.0717   -1.0313    0.0000 C   0  0  0  0  0  0  0  0  0  0  0  0
   -0.3572   -1.4438    0.0000 C   0  0  0  0  0  0  0  0  0  0  0  0
    0.3572   -1.0313    0.0000 C   0  0  0  0  0  0  0  0  0  0  0  0
    0.3572   -0.2062    0.0000 C   0  0  0  0  0  0  0  0  0  0  0  0
   -0.3572    0.2062    0.0000 C   0  0  0  0  0  0  0  0  0  0  0  0
   -0.3572    1.0313    0.0000 C   0  0  0  0  0  0  0  0  0  0  0  0
   -1.0717    1.4438    0.0000 *   0  0  0  0  0  0  0  0  0  0  0  0
    0.3572    1.4438    0.0000 C   0  0  0  0  0  0  0  0  0  0  0  0
    1.0717    1.0313    0.0000 *   0  0  0  0  0  0  0  0  0  0  0  0
  1  2  1  0
  1  3  1  0
  1  4  1  0
  1  5  1  1
  2  6  2  0
  2  7  1  0
  3  8  1  0
  3  9  1  6
  4 10  1  6
  4 11  1  0
  5 12  1  0
  6 13  1  0
  7 14  1  0
  7 15  2  0
  8 16  1  0
  9 17  2  0
 11 18  1  6
 13 19  2  0
 13 20  1  0
 20 21  1  0
  6 10  1  0
  8 14  1  1
 11 17  1  0
 12 16  1  0
 15 19  1  0
 16 22  1  0
 23 24  2  0
 24 25  1  0
 25 26  2  0
 26 27  1  0
 27 28  2  0
 28 23  1  0
 28 29  1  0
 29 30  1  0
 29 31  1  0
 31 32  1  0
V   30 *
V   32 *
M  END
