 
 
 
 26 29  0  0  1  0  0  0  0  0999 V2000
   17.5579  -26.1507    0.0000 C   0  0  1  0  0  0  0  0  0  0  0  0
   16.2944  -26.5719    0.0000 C   0  0  0  0  0  0  0  0  0  0  0  0
   18.4001  -27.2738    0.0000 C   0  0  1  0  0  0  0  0  0  0  0  0
   18.4001  -24.9575    0.0000 C   0  0  0  0  0  0  0  0  0  0  0  0
   16.7156  -25.0277    0.0000 C   0  0  0  0  0  0  0  0  0  0  0  0
   16.2944  -27.9757    0.0000 C   0  0  0  0  0  0  0  0  0  0  0  0
   15.0310  -25.8700    0.0000 C   0  0  0  0  0  0  0  0  0  0  0  0
   17.5579  -28.3968    0.0000 N   0  0  3  0  0  0  0  0  0  0  0  0
   19.7338  -26.8526    0.0000 N   0  0  0  0  0  0  0  0  0  0  0  0
   19.7338  -25.3786    0.0000 C   0  0  3  0  0  0  0  0  0  0  0  0
   15.0310  -28.6776    0.0000 C   0  0  0  0  0  0  0  0  0  0  0  0
   13.8378  -26.5719    0.0000 C   0  0  0  0  0  0  0  0  0  0  0  0
   17.9790  -29.7304    0.0000 C   0  0  0  0  0  0  0  0  0  0  0  0
   13.8378  -27.9757    0.0000 C   0  0  0  0  0  0  0  0  0  0  0  0
   12.6445  -25.8700    0.0000 O   0  0  0  0  0  0  0  0  0  0  0  0
   11.4513  -26.5719    0.0000 C   0  0  0  0  0  0  0  0  0  0  0  0
   10.2581  -25.8700    0.0000 N   0  0  0  0  0  0  0  0  0  0  0  0
   11.4513  -27.9757    0.0000 O   0  0  0  0  0  0  0  0  0  0  0  0
    8.9946  -26.5719    0.0000 C   0  0  0  0  0  0  0  0  0  0  0  0
   19.1722  -28.3968    0.0000 H   0  0  0  0  0  0  0  0  0  0  0  0
   20.8568  -27.6247    0.0000 C   0  0  0  0  0  0  0  0  0  0  0  0
    7.7816  -25.9141    0.0000 C   0  0  0  0  0  0  0  0  0  0  0  0
    6.5576  -26.5936    0.0000 C   0  0  0  0  0  0  0  0  0  0  0  0
    6.6041  -27.9934    0.0000 C   0  0  0  0  0  0  0  0  0  0  0  0
    7.7471  -28.7212    0.0000 C   0  0  0  0  0  0  0  0  0  0  0  0
    8.9711  -28.0417    0.0000 C   0  0  0  0  0  0  0  0  0  0  0  0
 16 17  1  0     0  0
 16 18  2  0     0  0
 17 19  1  0     0  0
  6  8  1  0     0  0
  9 10  1  0     0  0
 12 14  1  0     0  0
  3 20  1  6     0  0
  1  2  1  0     0  0
  1  3  1  0     0  0
  1  4  1  0     0  0
  1  5  1  6     0  0
  2  6  2  0     0  0
  2  7  1  0     0  0
  3  8  1  0     0  0
  3  9  1  0     0  0
  4 10  1  0     0  0
  6 11  1  0     0  0
  7 12  2  0     0  0
  8 13  1  0     0  0
 11 14  2  0     0  0
 12 15  1  0     0  0
 15 16  1  0     0  0
  9 21  1  0     0  0
 19 22  2  0     0  0
 22 23  1  0     0  0
 23 24  2  0     0  0
 24 25  1  0     0  0
 25 26  2  0     0  0
 19 26  1  0     0  0
M  END
