 
 
 
 40 40  0  0  1  0  0  0  0  0999 V2000
    2.9400  -14.0700    0.0000 C   0  0  0  0  0  0  0  0  0  0  0  0
    4.1524  -13.3700    0.0000 C   0  0  0  0  0  0  0  0  0  0  0  0
    5.3649  -14.0700    0.0000 C   0  0  0  0  0  0  0  0  0  0  0  0
    6.5773  -13.3700    0.0000 C   0  0  0  0  0  0  0  0  0  0  0  0
    7.7897  -14.0700    0.0000 C   0  0  0  0  0  0  0  0  0  0  0  0
    9.0022  -13.3700    0.0000 C   0  0  0  0  0  0  0  0  0  0  0  0
   10.2146  -14.0700    0.0000 N   0  0  0  0  0  0  0  0  0  0  0  0
   11.4270  -13.3700    0.0000 C   0  0  0  0  0  0  0  0  0  0  0  0
   12.6395  -14.0700    0.0000 C   0  0  0  0  0  0  0  0  0  0  0  0
   13.8519  -13.3700    0.0000 N   0  0  0  0  0  0  0  0  0  0  0  0
   15.0644  -14.0700    0.0000 C   0  0  0  0  0  0  0  0  0  0  0  0
   16.2768  -13.3700    0.0000 C   0  0  0  0  0  0  0  0  0  0  0  0
   17.4892  -14.0700    0.0000 N   0  0  0  0  0  0  0  0  0  0  0  0
   18.7017  -13.3700    0.0000 C   0  0  0  0  0  0  0  0  0  0  0  0
   19.9141  -14.0700    0.0000 C   0  0  0  0  0  0  0  0  0  0  0  0
   21.1265  -13.3700    0.0000 C   0  0  0  0  0  0  0  0  0  0  0  0
   22.3390  -14.0700    0.0000 C   0  0  0  0  0  0  0  0  0  0  0  0
   23.5514  -13.3700    0.0000 C   0  0  0  0  0  0  0  0  0  0  0  0
   24.7638  -14.0700    0.0000 C   0  0  0  0  0  0  0  0  0  0  0  0
   25.9763  -13.3700    0.0000 N   0  0  0  0  0  0  0  0  0  0  0  0
    9.0022  -11.9703    0.0000 O   0  0  0  0  0  0  0  0  0  0  0  0
   11.4270  -11.9701    0.0000 C   0  0  0  0  0  0  0  0  0  0  0  0
   12.6267  -11.2774    0.0000 C   0  0  0  0  0  0  0  0  0  0  0  0
   13.8158  -11.9641    0.0000 C   0  0  0  0  0  0  0  0  0  0  0  0
   15.0283  -11.2642    0.0000 C   0  0  0  0  0  0  0  0  0  0  0  0
   15.0284   -9.8642    0.0000 C   0  0  0  0  0  0  0  0  0  0  0  0
   13.8393   -9.1775    0.0000 C   0  0  0  0  0  0  0  0  0  0  0  0
   12.6268   -9.8774    0.0000 C   0  0  0  0  0  0  0  0  0  0  0  0
   16.2544   -9.1562    0.0000 O   0  0  0  0  0  0  0  0  0  0  0  0
   17.4619   -9.8534    0.0000 P   0  0  0  0  0  0  0  0  0  0  0  0
   18.6743  -10.5534    0.0000 O   0  0  0  0  0  0  0  0  0  0  0  0
   18.1619   -8.6409    0.0000 O   0  0  0  0  0  0  0  0  0  0  0  0
   16.7619  -11.0658    0.0000 O   0  0  0  0  0  0  0  0  0  0  0  0
   12.6395  -15.4697    0.0000 O   0  0  0  0  0  0  0  0  0  0  0  0
   15.0644  -15.4699    0.0000 C   0  0  0  0  0  0  0  0  0  0  0  0
   13.8412  -16.1762    0.0000 C   0  0  0  0  0  0  0  0  0  0  0  0
   16.2660  -16.1637    0.0000 C   0  0  0  0  0  0  0  0  0  0  0  0
   13.8412  -17.5762    0.0000 C   0  0  0  0  0  0  0  0  0  0  0  0
   16.2768  -11.9704    0.0000 O   0  0  0  0  0  0  0  0  0  0  0  0
   24.7638  -15.4699    0.0000 O   0  0  0  0  0  0  0  0  0  0  0  0
  1  2  1  0     0  0
  2  3  1  0     0  0
  3  4  1  0     0  0
  4  5  1  0     0  0
  5  6  1  0     0  0
  6  7  1  0     0  0
  7  8  1  0     0  0
  8  9  1  0     0  0
  9 10  1  0     0  0
 11 10  1  6     0  0
 11 12  1  0     0  0
 12 13  1  0     0  0
 13 14  1  0     0  0
 14 15  1  0     0  0
 15 16  1  0     0  0
 16 17  1  0     0  0
 17 18  1  0     0  0
 18 19  1  0     0  0
 19 20  1  0     0  0
  6 21  2  0     0  0
  8 22  1  1     0  0
 22 23  1  0     0  0
 23 24  2  0     0  0
 24 25  1  0     0  0
 25 26  2  0     0  0
 26 27  1  0     0  0
 27 28  2  0     0  0
 23 28  1  0     0  0
 26 29  1  0     0  0
 29 30  1  0     0  0
 30 31  1  0     0  0
 30 32  1  0     0  0
 30 33  2  0     0  0
  9 34  2  0     0  0
 11 35  1  0     0  0
 35 36  1  0     0  0
 35 37  1  1     0  0
 36 38  1  0     0  0
 12 39  2  0     0  0
 19 40  2  0     0  0
M  END
