 
 
 
 45 48  0  0  0  0  0  0  0  0999 V2000
   19.4600  -11.4800    0.0000 N   0  0  0  0  0  0  0  0  0  0  0  0
   19.4600  -12.8800    0.0000 C   0  0  0  0  0  0  0  0  0  0  0  0
   20.6724  -13.5800    0.0000 N   0  0  0  0  0  0  0  0  0  0  0  0
   21.8849  -12.8800    0.0000 C   0  0  0  0  0  0  0  0  0  0  0  0
   21.8849  -11.4800    0.0000 N   0  0  0  0  0  0  0  0  0  0  0  0
   20.6724  -10.7800    0.0000 C   0  0  0  0  0  0  0  0  0  0  0  0
   20.6724   -9.3802    0.0000 O   0  0  0  0  0  0  0  0  0  0  0  0
   18.2476  -13.5800    0.0000 O   0  0  0  0  0  0  0  0  0  0  0  0
   23.1160  -13.5910    0.0000 N   0  0  0  0  0  0  0  0  0  0  0  0
   20.6724  -14.9798    0.0000 C   0  0  0  0  0  0  0  0  0  0  0  0
   19.4432  -15.6897    0.0000 C   0  0  0  0  0  0  0  0  0  0  0  0
   18.2392  -14.9946    0.0000 C   0  0  0  0  0  0  0  0  0  0  0  0
   17.0268  -15.6946    0.0000 C   0  0  0  0  0  0  0  0  0  0  0  0
   17.0269  -17.0946    0.0000 C   0  0  0  0  0  0  0  0  0  0  0  0
   18.2308  -17.7897    0.0000 C   0  0  0  0  0  0  0  0  0  0  0  0
   19.4432  -17.0897    0.0000 C   0  0  0  0  0  0  0  0  0  0  0  0
   15.7954  -14.9838    0.0000 F   0  0  0  0  0  0  0  0  0  0  0  0
   20.6639  -17.7945    0.0000 F   0  0  0  0  0  0  0  0  0  0  0  0
   15.8083  -17.7983    0.0000 F   0  0  0  0  0  0  0  0  0  0  0  0
   18.2476  -10.7800    0.0000 C   0  0  0  0  0  0  0  0  0  0  0  0
   17.0521  -11.4704    0.0000 C   0  0  0  0  0  0  0  0  0  0  0  0
   15.7297  -11.1102    0.0000 N   0  0  0  0  0  0  0  0  0  0  0  0
   14.9748  -12.2541    0.0000 N   0  0  0  0  0  0  0  0  0  0  0  0
   15.8294  -13.3256    0.0000 C   0  0  0  0  0  0  0  0  0  0  0  0
   17.1126  -12.8439    0.0000 N   0  0  0  0  0  0  0  0  0  0  0  0
   13.5816  -12.2468    0.0000 C   0  0  0  0  0  0  0  0  0  0  0  0
   24.3212  -12.8953    0.0000 C   0  0  0  0  0  0  0  0  0  0  0  0
   25.5035  -13.5781    0.0000 C   0  0  0  0  0  0  0  0  0  0  0  0
   26.7160  -12.8783    0.0000 C   0  0  0  0  0  0  0  0  0  0  0  0
   26.7162  -11.4783    0.0000 C   0  0  0  0  0  0  0  0  0  0  0  0
   25.5338  -10.7955    0.0000 C   0  0  0  0  0  0  0  0  0  0  0  0
   24.3213  -11.4953    0.0000 C   0  0  0  0  0  0  0  0  0  0  0  0
   23.0789  -10.7778    0.0000 Cl  0  0  0  0  0  0  0  0  0  0  0  0
   28.0475  -13.3110    0.0000 C   0  0  0  0  0  0  0  0  0  0  0  0
   28.8705  -12.1785    0.0000 N   0  0  0  0  0  0  0  0  0  0  0  0
   28.0477  -11.0458    0.0000 N   0  0  0  0  0  0  0  0  0  0  0  0
   30.2400  -12.1787    0.0000 C   0  0  0  0  0  0  0  0  0  0  0  0
   30.8000  -16.0300    0.0000 C   0  0  0  0  0  0  0  0  0  0  0  0
   32.0124  -16.7300    0.0000 C   0  0  0  0  0  0  0  0  0  0  0  0
   29.5876  -16.7300    0.0000 O   0  0  0  0  0  0  0  0  0  0  0  0
   30.8000  -14.6300    0.0000 O   0  0  0  0  0  0  0  0  0  0  0  0
   33.2079  -16.0396    0.0000 C   0  0  0  0  0  0  0  0  0  0  0  0
   34.3953  -16.7251    0.0000 C   0  0  0  0  0  0  0  0  0  0  0  0
   35.5865  -16.0371    0.0000 O   0  0  0  0  0  0  0  0  0  0  0  0
   34.3955  -18.1298    0.0000 O   0  0  0  0  0  0  0  0  0  0  0  0
  1  2  1  0     0  0
  2  3  1  0     0  0
  3  4  1  0     0  0
  4  5  1  0     0  0
  5  6  1  0     0  0
  1  6  1  0     0  0
  6  7  2  0     0  0
  2  8  2  0     0  0
  4  9  2  0     0  0
  3 10  1  0     0  0
 10 11  1  0     0  0
 11 12  2  0     0  0
 12 13  1  0     0  0
 13 14  2  0     0  0
 14 15  1  0     0  0
 15 16  2  0     0  0
 11 16  1  0     0  0
 13 17  1  0     0  0
 16 18  1  0     0  0
 14 19  1  0     0  0
  1 20  1  0     0  0
 20 21  1  0     0  0
 21 22  2  0     0  0
 22 23  1  0     0  0
 23 24  1  0     0  0
 24 25  2  0     0  0
 21 25  1  0     0  0
 23 26  1  0     0  0
  9 27  1  0     0  0
 27 28  2  0     0  0
 28 29  1  0     0  0
 29 30  1  0     0  0
 30 31  1  0     0  0
 31 32  2  0     0  0
 27 32  1  0     0  0
 32 33  1  0     0  0
 29 34  2  0     0  0
 34 35  1  0     0  0
 35 36  1  0     0  0
 30 36  2  0     0  0
 35 37  1  0     0  0
 38 39  1  0     0  0
 38 40  1  0     0  0
 38 41  2  0     0  0
 39 42  2  0     0  0
 42 43  1  0     0  0
 43 44  1  0     0  0
 43 45  2  0     0  0
M  END
