 
 
 
 30 32  0  0  1  0  0  0  0  0999 V2000
   13.9300  -14.8400    0.0000 N   0  0  0  0  0  0  0  0  0  0  0  0
   15.1200  -15.5400    0.0000 C   0  0  0  0  0  0  0  0  0  0  0  0
   12.7400  -15.5400    0.0000 C   0  0  0  0  0  0  0  0  0  0  0  0
   13.9300  -13.4400    0.0000 C   0  0  0  0  0  0  0  0  0  0  0  0
   11.5500  -14.8400    0.0000 C   0  0  0  0  0  0  0  0  0  0  0  0
   10.2900  -15.5400    0.0000 C   0  0  0  0  0  0  0  0  0  0  0  0
   10.2900  -16.9400    0.0000 C   0  0  0  0  0  0  0  0  0  0  0  0
   11.4800  -17.6400    0.0000 C   0  0  0  0  0  0  0  0  0  0  0  0
   12.7400  -16.9400    0.0000 C   0  0  0  0  0  0  0  0  0  0  0  0
   15.1200  -12.7400    0.0000 C   0  0  0  0  0  0  0  0  0  0  0  0
   15.1200  -11.3400    0.0000 C   0  0  0  0  0  0  0  0  0  0  0  0
   13.9300  -10.6400    0.0000 C   0  0  0  0  0  0  0  0  0  0  0  0
   12.7400  -11.3400    0.0000 C   0  0  0  0  0  0  0  0  0  0  0  0
   12.7400  -12.7400    0.0000 C   0  0  0  0  0  0  0  0  0  0  0  0
   13.9300   -9.2400    0.0000 O   0  0  0  0  0  0  0  0  0  0  0  0
   12.7400   -8.5400    0.0000 C   0  0  0  0  0  0  0  0  0  0  0  0
   11.5500   -9.2400    0.0000 C   0  0  0  0  0  0  0  0  0  0  0  0
   10.3600   -8.5400    0.0000 C   0  0  0  0  0  0  0  0  0  0  0  0
   16.3100  -14.8400    0.0000 N   0  0  0  0  0  0  0  0  0  0  0  0
   15.1200  -16.9400    0.0000 O   0  0  0  0  0  0  0  0  0  0  0  0
   17.5000  -15.5400    0.0000 C   0  0  0  0  0  0  0  0  0  0  0  0
   17.9200  -16.8700    0.0000 N   0  0  0  0  0  0  0  0  0  0  0  0
   19.3200  -16.8700    0.0000 C   0  0  0  0  0  0  0  0  0  0  0  0
   19.8100  -15.5400    0.0000 C   0  0  0  0  0  0  0  0  0  0  0  0
   18.6900  -14.7000    0.0000 S   0  0  0  0  0  0  0  0  0  0  0  0
   21.0000  -14.8400    0.0000 S   0  0  0  0  0  0  0  0  0  0  0  0
   22.1900  -15.5400    0.0000 C   0  0  0  0  0  0  0  0  0  0  0  0
   23.3800  -14.8400    0.0000 C   0  0  0  0  0  0  0  0  0  0  0  0
   24.5700  -15.5400    0.0000 O   0  0  0  0  0  0  0  0  0  0  0  0
   23.3800  -13.4400    0.0000 O   0  0  0  0  0  0  0  0  0  0  0  0
  1  2  1  0     0  0
  1  3  1  0     0  0
  4  1  1  6     0  0
  3  5  1  0     0  0
  5  6  1  0     0  0
  6  7  1  0     0  0
  7  8  1  0     0  0
  8  9  1  0     0  0
  3  9  1  0     0  0
  4 10  1  0     0  0
 10 11  1  0     0  0
 11 12  1  0     0  0
 12 13  1  0     0  0
 13 14  1  0     0  0
  4 14  1  0     0  0
 12 15  1  1     0  0
 15 16  1  0     0  0
 16 17  1  0     0  0
 17 18  1  0     0  0
  2 19  1  0     0  0
  2 20  2  0     0  0
 19 21  1  0     0  0
 21 22  2  0     0  0
 22 23  1  0     0  0
 23 24  2  0     0  0
 24 25  1  0     0  0
 21 25  1  0     0  0
 26 27  1  0     0  0
 26 24  1  0     0  0
 27 28  1  0     0  0
 28 29  1  0     0  0
 28 30  2  0     0  0
M  END
