 
 
 
138142  0  0  1  0  0  0  0  0999 V2000
    4.6900  -16.8700    0.0000 C   0  0  0  0  0  0  0  0  0  0  0  0
    5.9024  -17.5700    0.0000 C   0  0  0  0  0  0  0  0  0  0  0  0
    7.0979  -16.8796    0.0000 N   0  0  0  0  0  0  0  0  0  0  0  0
    5.9025  -18.9698    0.0000 O   0  0  0  0  0  0  0  0  0  0  0  0
    8.2853  -17.5651    0.0000 C   0  0  0  0  0  0  0  0  0  0  0  0
    9.4765  -16.8771    0.0000 C   0  0  0  0  0  0  0  0  0  0  0  0
   10.6660  -17.5638    0.0000 N   0  0  0  0  0  0  0  0  0  0  0  0
    9.4765  -15.4703    0.0000 O   0  0  0  0  0  0  0  0  0  0  0  0
    8.2855  -18.9698    0.0000 C   0  0  0  0  0  0  0  0  0  0  0  0
    9.4788  -19.6588    0.0000 C   0  0  0  0  0  0  0  0  0  0  0  0
   10.6647  -18.9740    0.0000 C   0  0  0  0  0  0  0  0  0  0  0  0
    9.4791  -21.0697    0.0000 C   0  0  0  0  0  0  0  0  0  0  0  0
   11.8561  -16.8765    0.0000 C   0  0  0  0  0  0  0  0  0  0  0  0
   13.0462  -17.5635    0.0000 C   0  0  0  0  0  0  0  0  0  0  0  0
   14.2360  -16.8763    0.0000 N   0  0  0  0  0  0  0  0  0  0  0  0
   15.4262  -17.5634    0.0000 C   0  0  0  0  0  0  0  0  0  0  0  0
   13.0464  -18.9698    0.0000 O   0  0  0  0  0  0  0  0  0  0  0  0
   11.8561  -15.4702    0.0000 C   0  0  0  0  0  0  0  0  0  0  0  0
   10.6241  -14.7587    0.0000 C   0  0  0  0  0  0  0  0  0  0  0  0
   13.0490  -14.7814    0.0000 O   0  0  0  0  0  0  0  0  0  0  0  0
   16.6160  -16.8762    0.0000 C   0  0  0  0  0  0  0  0  0  0  0  0
   15.4265  -18.9697    0.0000 C   0  0  0  0  0  0  0  0  0  0  0  0
   16.6191  -19.7283    0.0000 C   0  0  0  0  0  0  0  0  0  0  0  0
   16.6194  -21.1397    0.0000 C   0  0  0  0  0  0  0  0  0  0  0  0
   17.8319  -21.8395    0.0000 C   0  0  0  0  0  0  0  0  0  0  0  0
   19.0442  -21.1392    0.0000 C   0  0  0  0  0  0  0  0  0  0  0  0
   19.0440  -19.7279    0.0000 C   0  0  0  0  0  0  0  0  0  0  0  0
   17.8314  -19.0281    0.0000 C   0  0  0  0  0  0  0  0  0  0  0  0
   17.8062  -17.5634    0.0000 N   0  0  0  0  0  0  0  0  0  0  0  0
   16.6160  -15.4702    0.0000 O   0  0  0  0  0  0  0  0  0  0  0  0
   18.9960  -16.8762    0.0000 C   0  0  0  0  0  0  0  0  0  0  0  0
   20.1862  -17.5634    0.0000 C   0  0  0  0  0  0  0  0  0  0  0  0
   18.9960  -15.4702    0.0000 C   0  0  0  0  0  0  0  0  0  0  0  0
   17.7641  -14.7588    0.0000 O   0  0  0  0  0  0  0  0  0  0  0  0
   20.1889  -14.7814    0.0000 N   0  0  0  0  0  0  0  0  0  0  0  0
   20.1891  -13.3703    0.0000 C   0  0  0  0  0  0  0  0  0  0  0  0
   18.9960  -18.2762    0.0000 C   0  0  0  0  0  0  0  0  0  0  0  0
   20.1862  -18.9634    0.0000 C   0  0  0  0  0  0  0  0  0  0  0  0
   21.3892  -19.6401    0.0000 C   0  0  0  0  0  0  0  0  0  0  0  0
   21.3892  -21.0401    0.0000 C   0  0  0  0  0  0  0  0  0  0  0  0
   22.6379  -21.7605    0.0000 C   0  0  0  0  0  0  0  0  0  0  0  0
   23.8250  -21.0744    0.0000 C   0  0  0  0  0  0  0  0  0  0  0  0
   21.3797  -12.6828    0.0000 C   0  0  0  0  0  0  0  0  0  0  0  0
   18.9549  -12.6574    0.0000 C   0  0  0  0  0  0  0  0  0  0  0  0
   17.7483  -13.3538    0.0000 C   0  0  0  0  0  0  0  0  0  0  0  0
   16.5668  -12.6713    0.0000 C   0  0  0  0  0  0  0  0  0  0  0  0
   15.3723  -13.3609    0.0000 O   0  0  0  0  0  0  0  0  0  0  0  0
   16.5669  -11.2702    0.0000 O   0  0  0  0  0  0  0  0  0  0  0  0
   22.5643  -13.3667    0.0000 O   0  0  0  0  0  0  0  0  0  0  0  0
   21.3799  -11.2703    0.0000 N   0  0  0  0  0  0  0  0  0  0  0  0
   20.1452  -10.5570    0.0000 C   0  0  0  0  0  0  0  0  0  0  0  0
   20.5075   -9.2047    0.0000 C   0  0  0  0  0  0  0  0  0  0  0  0
   19.5014   -8.1991    0.0000 O   0  0  0  0  0  0  0  0  0  0  0  0
   18.8599  -11.0893    0.0000 C   0  0  0  0  0  0  0  0  0  0  0  0
   17.7162  -10.2118    0.0000 C   0  0  0  0  0  0  0  0  0  0  0  0
   18.0998   -8.8754    0.0000 C   0  0  0  0  0  0  0  0  0  0  0  0
   17.1267   -7.8689    0.0000 C   0  0  0  0  0  0  0  0  0  0  0  0
   15.7685   -8.2085    0.0000 C   0  0  0  0  0  0  0  0  0  0  0  0
   15.3859   -9.5460    0.0000 C   0  0  0  0  0  0  0  0  0  0  0  0
   16.3591  -10.5524    0.0000 C   0  0  0  0  0  0  0  0  0  0  0  0
   14.7771   -7.1833    0.0000 O   0  0  0  0  0  0  0  0  0  0  0  0
   25.0170  -21.7621    0.0000 C   0  0  0  0  0  0  0  0  0  0  0  0
   26.2054  -21.0752    0.0000 C   0  0  0  0  0  0  0  0  0  0  0  0
   27.3967  -21.7625    0.0000 C   0  0  0  0  0  0  0  0  0  0  0  0
   28.5856  -21.0755    0.0000 C   0  0  0  0  0  0  0  0  0  0  0  0
   28.5856  -19.6755    0.0000 C   0  0  0  0  0  0  0  0  0  0  0  0
   29.7810  -18.9850    0.0000 C   0  0  0  0  0  0  0  0  0  0  0  0
   30.9638  -19.6677    0.0000 C   0  0  0  0  0  0  0  0  0  0  0  0
   32.1572  -18.9783    0.0000 N   0  0  0  0  0  0  0  0  0  0  0  0
   30.9641  -21.0698    0.0000 O   0  0  0  0  0  0  0  0  0  0  0  0
   33.3457  -19.6643    0.0000 C   0  0  0  0  0  0  0  0  0  0  0  0
   34.5362  -18.9765    0.0000 C   0  0  0  0  0  0  0  0  0  0  0  0
   35.7262  -19.6634    0.0000 N   0  0  0  0  0  0  0  0  0  0  0  0
   33.3461  -21.0698    0.0000 C   0  0  0  0  0  0  0  0  0  0  0  0
   34.5360  -17.5702    0.0000 O   0  0  0  0  0  0  0  0  0  0  0  0
   36.9159  -18.9761    0.0000 C   0  0  0  0  0  0  0  0  0  0  0  0
   38.1064  -19.6632    0.0000 C   0  0  0  0  0  0  0  0  0  0  0  0
   36.9158  -17.5702    0.0000 C   0  0  0  0  0  0  0  0  0  0  0  0
   39.2959  -18.9760    0.0000 N   0  0  0  0  0  0  0  0  0  0  0  0
   38.1068  -21.0697    0.0000 O   0  0  0  0  0  0  0  0  0  0  0  0
   40.4864  -19.6631    0.0000 C   0  0  0  0  0  0  0  0  0  0  0  0
   29.7811  -17.5703    0.0000 N   0  0  0  0  0  0  0  0  0  0  0  0
   29.7810  -20.3850    0.0000 C   0  0  0  0  0  0  0  0  0  0  0  0
   30.9702  -16.8836    0.0000 C   0  0  0  0  0  0  0  0  0  0  0  0
   32.1541  -17.5670    0.0000 O   0  0  0  0  0  0  0  0  0  0  0  0
   30.9703  -15.4703    0.0000 C   0  0  0  0  0  0  0  0  0  0  0  0
   32.1600  -14.7833    0.0000 C   0  0  0  0  0  0  0  0  0  0  0  0
   29.7352  -14.7569    0.0000 N   0  0  0  0  0  0  0  0  0  0  0  0
   33.3442  -15.4669    0.0000 C   0  0  0  0  0  0  0  0  0  0  0  0
   34.5370  -14.7780    0.0000 C   0  0  0  0  0  0  0  0  0  0  0  0
   33.3444  -16.8698    0.0000 C   0  0  0  0  0  0  0  0  0  0  0  0
   29.7352  -13.3569    0.0000 C   0  0  0  0  0  0  0  0  0  0  0  0
   30.9529  -12.6538    0.0000 O   0  0  0  0  0  0  0  0  0  0  0  0
   28.5395  -12.6667    0.0000 C   0  0  0  0  0  0  0  0  0  0  0  0
   41.6759  -18.9760    0.0000 C   0  0  0  0  0  0  0  0  0  0  0  0
   40.4868  -21.0697    0.0000 C   0  0  0  0  0  0  0  0  0  0  0  0
   42.8664  -19.6631    0.0000 N   0  0  0  0  0  0  0  0  0  0  0  0
   41.6757  -17.5702    0.0000 O   0  0  0  0  0  0  0  0  0  0  0  0
   44.0559  -18.9760    0.0000 C   0  0  0  0  0  0  0  0  0  0  0  0
   45.2464  -19.6631    0.0000 C   0  0  0  0  0  0  0  0  0  0  0  0
   44.0557  -17.5702    0.0000 C   0  0  0  0  0  0  0  0  0  0  0  0
   46.4359  -18.9760    0.0000 N   0  0  0  0  0  0  0  0  0  0  0  0
   45.2468  -21.0697    0.0000 O   0  0  0  0  0  0  0  0  0  0  0  0
   47.6264  -19.6631    0.0000 C   0  0  0  0  0  0  0  0  0  0  0  0
   48.8159  -18.9760    0.0000 C   0  0  0  0  0  0  0  0  0  0  0  0
   47.6268  -21.0697    0.0000 C   0  0  0  0  0  0  0  0  0  0  0  0
   50.0064  -19.6631    0.0000 N   0  0  0  0  0  0  0  0  0  0  0  0
   48.8157  -17.5702    0.0000 O   0  0  0  0  0  0  0  0  0  0  0  0
   51.1959  -18.9760    0.0000 C   0  0  0  0  0  0  0  0  0  0  0  0
   52.3864  -19.6631    0.0000 C   0  0  0  0  0  0  0  0  0  0  0  0
   51.1957  -17.5702    0.0000 C   0  0  0  0  0  0  0  0  0  0  0  0
   53.5759  -18.9760    0.0000 N   0  0  0  0  0  0  0  0  0  0  0  0
   52.3868  -21.0697    0.0000 O   0  0  0  0  0  0  0  0  0  0  0  0
   27.3412  -13.3588    0.0000 N   0  0  0  0  0  0  0  0  0  0  0  0
   26.1551  -12.6742    0.0000 C   0  0  0  0  0  0  0  0  0  0  0  0
   24.9633  -13.3626    0.0000 O   0  0  0  0  0  0  0  0  0  0  0  0
   26.1549  -11.2702    0.0000 C   0  0  0  0  0  0  0  0  0  0  0  0
   28.5394  -11.2702    0.0000 C   0  0  0  0  0  0  0  0  0  0  0  0
   29.7672  -10.5610    0.0000 C   0  0  0  0  0  0  0  0  0  0  0  0
   29.7672   -9.1610    0.0000 C   0  0  0  0  0  0  0  0  0  0  0  0
   30.9629   -8.4707    0.0000 N   0  0  0  0  0  0  0  0  0  0  0  0
   28.5459   -8.4558    0.0000 O   0  0  0  0  0  0  0  0  0  0  0  0
   24.9612  -10.5812    0.0000 N   0  0  0  0  0  0  0  0  0  0  0  0
   27.3860  -10.5590    0.0000 C   0  0  0  0  0  0  0  0  0  0  0  0
   24.9612   -9.1812    0.0000 C   0  0  0  0  0  0  0  0  0  0  0  0
   26.2000   -8.4658    0.0000 O   0  0  0  0  0  0  0  0  0  0  0  0
   23.7487   -8.4812    0.0000 C   0  0  0  0  0  0  0  0  0  0  0  0
   22.5273   -9.1866    0.0000 N   0  0  0  0  0  0  0  0  0  0  0  0
   23.7488   -7.0701    0.0000 C   0  0  0  0  0  0  0  0  0  0  0  0
   22.5223   -6.3618    0.0000 C   0  0  0  0  0  0  0  0  0  0  0  0
   22.3773   -4.9795    0.0000 C   0  0  0  0  0  0  0  0  0  0  0  0
   21.0177   -4.6903    0.0000 C   0  0  0  0  0  0  0  0  0  0  0  0
   20.3225   -5.8939    0.0000 N   0  0  0  0  0  0  0  0  0  0  0  0
   21.2524   -6.9270    0.0000 C   0  0  0  0  0  0  0  0  0  0  0  0
   23.3142   -3.9393    0.0000 C   0  0  0  0  0  0  0  0  0  0  0  0
   22.8818   -2.6077    0.0000 C   0  0  0  0  0  0  0  0  0  0  0  0
   21.5223   -2.3185    0.0000 C   0  0  0  0  0  0  0  0  0  0  0  0
   20.5853   -3.3587    0.0000 C   0  0  0  0  0  0  0  0  0  0  0  0
  1  2  1  0     0  0
  2  3  1  0     0  0
  2  4  2  0     0  0
  5  3  1  6     0  0
  5  6  1  0     0  0
  6  7  1  0     0  0
  6  8  2  0     0  0
  5  9  1  0     0  0
  9 10  1  0     0  0
 10 11  1  0     0  0
 10 12  1  0     0  0
 13  7  1  1     0  0
 13 14  1  0     0  0
 14 15  1  0     0  0
 16 15  1  6     0  0
 14 17  2  0     0  0
 13 18  1  0     0  0
 18 19  1  0     0  0
 18 20  1  1     0  0
 16 21  1  0     0  0
 16 22  1  0     0  0
 22 23  1  0     0  0
 23 24  2  0     0  0
 24 25  1  0     0  0
 25 26  2  0     0  0
 26 27  1  0     0  0
 27 28  2  0     0  0
 23 28  1  0     0  0
 21 29  1  0     0  0
 21 30  2  0     0  0
 29 31  1  0     0  0
 31 32  1  0     0  0
 31 33  1  0     0  0
 33 34  2  0     0  0
 33 35  1  0     0  0
 35 36  1  0     0  0
 31 37  1  6     0  0
 32 38  1  0     0  0
 38 39  1  0     0  0
 39 40  1  0     0  0
 40 41  1  0     0  0
 41 42  1  0     0  0
 36 43  1  0     0  0
 36 44  1  1     0  0
 44 45  1  0     0  0
 45 46  1  0     0  0
 46 47  1  0     0  0
 46 48  2  0     0  0
 43 49  2  0     0  0
 43 50  1  0     0  0
 50 51  1  0     0  0
 51 52  1  0     0  0
 52 53  2  0     0  0
 51 54  1  1     0  0
 54 55  1  0     0  0
 55 56  2  0     0  0
 56 57  1  0     0  0
 57 58  2  0     0  0
 58 59  1  0     0  0
 59 60  2  0     0  0
 55 60  1  0     0  0
 58 61  1  0     0  0
 42 62  1  0     0  0
 62 63  2  0     0  0
 63 64  1  0     0  0
 64 65  1  0     0  0
 65 66  1  0     0  0
 66 67  1  0     0  0
 67 68  1  0     0  0
 68 69  1  0     0  0
 68 70  2  0     0  0
 69 71  1  0     0  0
 71 72  1  0     0  0
 72 73  1  0     0  0
 71 74  1  6     0  0
 72 75  2  0     0  0
 73 76  1  0     0  0
 76 77  1  0     0  0
 76 78  1  1     0  0
 77 79  1  0     0  0
 77 80  2  0     0  0
 79 81  1  0     0  0
 67 82  1  0     0  0
 67 83  1  1     0  0
 82 84  1  0     0  0
 84 85  2  0     0  0
 84 86  1  0     0  0
 86 87  1  1     0  0
 86 88  1  0     0  0
 87 89  1  0     0  0
 89 90  1  0     0  0
 89 91  1  0     0  0
 88 92  1  0     0  0
 92 93  2  0     0  0
 92 94  1  0     0  0
 81 95  1  0     0  0
 81 96  1  6     0  0
 95 97  1  0     0  0
 95 98  2  0     0  0
 97 99  1  0     0  0
 99100  1  0     0  0
 99101  1  1     0  0
100102  1  0     0  0
100103  2  0     0  0
102104  1  0     0  0
104105  1  0     0  0
104106  1  6     0  0
105107  1  0     0  0
105108  2  0     0  0
109107  1  0     0  0
109110  1  0     0  0
109111  1  6     0  0
110112  1  0     0  0
110113  2  0     0  0
 94114  1  0     0  0
114115  1  0     0  0
115116  2  0     0  0
115117  1  0     0  0
 94118  1  1     0  0
118119  1  0     0  0
119120  1  0     0  0
120121  1  0     0  0
120122  2  0     0  0
117123  1  0     0  0
117124  1  1     0  0
123125  1  0     0  0
125126  2  0     0  0
125127  1  0     0  0
127128  1  0     0  0
128 52  1  0     0  0
127129  1  1     0  0
129130  1  0     0  0
130131  1  0     0  0
131132  1  0     0  0
132133  1  0     0  0
133134  1  0     0  0
130134  2  0     0  0
131135  2  0     0  0
135136  1  0     0  0
136137  2  0     0  0
137138  1  0     0  0
132138  2  0     0  0
M  END
