 
 
 
 82 87  0  0  0  0  0  0  0  0999 V2000
   10.0789  -14.4192    0.0000 C   0  0  0  0  0  0  0  0  0  0  0  0
   10.0789  -15.8188    0.0000 C   0  0  0  0  0  0  0  0  0  0  0  0
   11.2686  -16.5186    0.0000 C   0  0  0  0  0  0  0  0  0  0  0  0
   12.4583  -15.8188    0.0000 C   0  0  0  0  0  0  0  0  0  0  0  0
   12.4583  -14.4192    0.0000 C   0  0  0  0  0  0  0  0  0  0  0  0
   11.2686  -13.7194    0.0000 C   0  0  0  0  0  0  0  0  0  0  0  0
   13.7179  -16.5186    0.0000 C   0  0  0  0  0  0  0  0  0  0  0  0
   14.9076  -15.8188    0.0000 C   0  0  0  0  0  0  0  0  0  0  0  0
   14.9076  -14.4192    0.0000 C   0  0  0  0  0  0  0  0  0  0  0  0
   13.7179  -13.7194    0.0000 N   0  0  0  0  0  0  0  0  0  0  0  0
    8.8192  -13.7194    0.0000 O   0  0  0  0  0  0  0  0  0  0  0  0
    7.6295  -14.4192    0.0000 C   0  0  0  0  0  0  0  0  0  0  0  0
    8.8192  -16.5186    0.0000 O   0  0  0  0  0  0  0  0  0  0  0  0
    7.6295  -15.8188    0.0000 C   0  0  0  0  0  0  0  0  0  0  0  0
   16.0973  -16.5186    0.0000 C   0  0  0  0  0  0  0  0  0  0  0  0
   16.0973  -17.9183    0.0000 C   0  0  0  0  0  0  0  0  0  0  0  0
   17.3570  -18.6881    0.0000 C   0  0  0  0  0  0  0  0  0  0  0  0
   18.5467  -17.9183    0.0000 C   0  0  0  0  0  0  0  0  0  0  0  0
   18.5467  -16.5186    0.0000 C   0  0  0  0  0  0  0  0  0  0  0  0
   17.3570  -15.8188    0.0000 N   0  0  0  0  0  0  0  0  0  0  0  0
   19.8063  -18.6181    0.0000 C   0  0  0  0  0  0  0  0  0  0  0  0
   20.9960  -17.9883    0.0000 C   0  0  0  0  0  0  0  0  0  0  0  0
   22.1857  -18.6181    0.0000 N   0  0  0  0  0  0  0  0  0  0  0  0
   20.9960  -16.5186    0.0000 O   0  0  0  0  0  0  0  0  0  0  0  0
   23.3754  -17.9883    0.0000 C   0  0  0  0  0  0  0  0  0  0  0  0
   24.7050  -18.3382    0.0000 C   0  0  0  0  0  0  0  0  0  0  0  0
   25.4748  -17.1485    0.0000 C   0  0  0  0  0  0  0  0  0  0  0  0
   24.6350  -16.0988    0.0000 N   0  0  0  0  0  0  0  0  0  0  0  0
   23.3054  -16.5886    0.0000 O   0  0  0  0  0  0  0  0  0  0  0  0
   26.8745  -17.1485    0.0000 C   0  0  0  0  0  0  0  0  0  0  0  0
   28.2741  -17.1485    0.0000 C   0  0  0  0  0  0  0  0  0  0  0  0
   26.8745  -15.7489    0.0000 C   0  0  0  0  0  0  0  0  0  0  0  0
   26.8745  -18.5481    0.0000 C   0  0  0  0  0  0  0  0  0  0  0  0
   29.6737  -17.1485    0.0000 F   0  0  0  0  0  0  0  0  0  0  0  0
   28.2741  -15.7489    0.0000 F   0  0  0  0  0  0  0  0  0  0  0  0
   28.2741  -18.5481    0.0000 F   0  0  0  0  0  0  0  0  0  0  0  0
   38.8482  -16.7756    0.0000 C   0  0  0  0  0  0  0  0  0  0  0  0
   40.0469  -17.4808    0.0000 C   0  0  0  0  0  0  0  0  0  0  0  0
   37.5790  -17.4808    0.0000 C   0  0  0  0  0  0  0  0  0  0  0  0
   41.3162  -16.7756    0.0000 C   0  0  0  0  0  0  0  0  0  0  0  0
   36.3803  -16.7756    0.0000 C   0  0  0  0  0  0  0  0  0  0  0  0
   42.5148  -17.4808    0.0000 O   0  0  0  0  0  0  0  0  0  0  0  0
   41.3167  -15.5064    0.0000 O   0  0  0  0  0  0  0  0  0  0  0  0
   35.1111  -17.4808    0.0000 C   0  0  0  0  0  0  0  0  0  0  0  0
   33.9124  -16.7756    0.0000 O   0  0  0  0  0  0  0  0  0  0  0  0
   35.1111  -18.8910    0.0000 O   0  0  0  0  0  0  0  0  0  0  0  0
   10.0789  -14.4192    0.0000 C   0  0  0  0  0  0  0  0  0  0  0  0
   10.0789  -15.8188    0.0000 C   0  0  0  0  0  0  0  0  0  0  0  0
   11.2686  -16.5186    0.0000 C   0  0  0  0  0  0  0  0  0  0  0  0
   12.4583  -15.8188    0.0000 C   0  0  0  0  0  0  0  0  0  0  0  0
   12.4583  -14.4192    0.0000 C   0  0  0  0  0  0  0  0  0  0  0  0
   11.2686  -13.7194    0.0000 C   0  0  0  0  0  0  0  0  0  0  0  0
   13.7179  -13.7194    0.0000 N   0  0  0  0  0  0  0  0  0  0  0  0
   14.9076  -14.4192    0.0000 C   0  0  0  0  0  0  0  0  0  0  0  0
   14.9076  -15.8188    0.0000 C   0  0  0  0  0  0  0  0  0  0  0  0
   13.7179  -16.5186    0.0000 C   0  0  0  0  0  0  0  0  0  0  0  0
   16.0973  -16.5186    0.0000 C   0  0  0  0  0  0  0  0  0  0  0  0
   16.0973  -17.9183    0.0000 C   0  0  0  0  0  0  0  0  0  0  0  0
   17.3570  -18.6881    0.0000 C   0  0  0  0  0  0  0  0  0  0  0  0
   18.5467  -17.9183    0.0000 C   0  0  0  0  0  0  0  0  0  0  0  0
   18.5467  -16.5186    0.0000 C   0  0  0  0  0  0  0  0  0  0  0  0
   17.3570  -15.8188    0.0000 N   0  0  0  0  0  0  0  0  0  0  0  0
   19.8063  -18.6181    0.0000 C   0  0  0  0  0  0  0  0  0  0  0  0
   20.9960  -17.9883    0.0000 C   0  0  0  0  0  0  0  0  0  0  0  0
   22.1857  -18.6181    0.0000 N   0  0  0  0  0  0  0  0  0  0  0  0
   23.3754  -17.9883    0.0000 C   0  0  0  0  0  0  0  0  0  0  0  0
   24.7050  -18.3382    0.0000 C   0  0  0  0  0  0  0  0  0  0  0  0
   25.4748  -17.1485    0.0000 C   0  0  0  0  0  0  0  0  0  0  0  0
   24.6350  -16.0988    0.0000 N   0  0  0  0  0  0  0  0  0  0  0  0
   23.3054  -16.5886    0.0000 O   0  0  0  0  0  0  0  0  0  0  0  0
   26.8745  -17.1485    0.0000 C   0  0  0  0  0  0  0  0  0  0  0  0
   28.2741  -17.1485    0.0000 C   0  0  0  0  0  0  0  0  0  0  0  0
   29.6737  -17.1485    0.0000 F   0  0  0  0  0  0  0  0  0  0  0  0
   28.2741  -15.7489    0.0000 F   0  0  0  0  0  0  0  0  0  0  0  0
   28.2741  -18.5481    0.0000 F   0  0  0  0  0  0  0  0  0  0  0  0
   26.8745  -15.7489    0.0000 C   0  0  0  0  0  0  0  0  0  0  0  0
   26.8745  -18.5481    0.0000 C   0  0  0  0  0  0  0  0  0  0  0  0
   20.9960  -16.5186    0.0000 O   0  0  0  0  0  0  0  0  0  0  0  0
    8.8192  -16.5186    0.0000 O   0  0  0  0  0  0  0  0  0  0  0  0
    7.6295  -15.8188    0.0000 C   0  0  0  0  0  0  0  0  0  0  0  0
    8.8192  -13.7194    0.0000 O   0  0  0  0  0  0  0  0  0  0  0  0
    7.6295  -14.4192    0.0000 C   0  0  0  0  0  0  0  0  0  0  0  0
 37 38  1  0     0  0
 37 39  1  0     0  0
 38 40  1  0     0  0
 39 41  1  0     0  0
 40 42  1  0     0  0
 40 43  2  0     0  0
 41 44  1  0     0  0
 44 45  1  0     0  0
 44 46  2  0     0  0
  1  2  2  0     0  0
  2  3  1  0     0  0
  3  4  2  0     0  0
  4  5  1  0     0  0
  5  6  2  0     0  0
  1  6  1  0     0  0
  4  7  1  0     0  0
  7  8  2  0     0  0
  8  9  1  0     0  0
  9 10  2  0     0  0
  5 10  1  0     0  0
  1 11  1  0     0  0
 11 12  1  0     0  0
  2 13  1  0     0  0
 13 14  1  0     0  0
  8 15  1  0     0  0
 15 16  2  0     0  0
 16 17  1  0     0  0
 17 18  2  0     0  0
 18 19  1  0     0  0
 19 20  2  0     0  0
 15 20  1  0     0  0
 18 21  1  0     0  0
 21 22  1  0     0  0
 22 23  1  0     0  0
 22 24  2  0     0  0
 23 25  1  0     0  0
 25 26  2  0     0  0
 26 27  1  0     0  0
 27 28  2  0     0  0
 28 29  1  0     0  0
 25 29  1  0     0  0
 27 30  1  0     0  0
 30 31  1  0     0  0
 30 32  1  0     0  0
 30 33  1  0     0  0
 31 34  1  0     0  0
 31 35  1  0     0  0
 31 36  1  0     0  0
 47 48  2  0     0  0
 48 49  1  0     0  0
 49 50  2  0     0  0
 50 51  1  0     0  0
 51 52  2  0     0  0
 47 52  1  0     0  0
 50 56  1  0     0  0
 56 55  2  0     0  0
 55 54  1  0     0  0
 54 53  2  0     0  0
 51 53  1  0     0  0
 47 81  1  0     0  0
 81 82  1  0     0  0
 48 79  1  0     0  0
 79 80  1  0     0  0
 55 57  1  0     0  0
 57 58  2  0     0  0
 58 59  1  0     0  0
 59 60  2  0     0  0
 60 61  1  0     0  0
 61 62  2  0     0  0
 57 62  1  0     0  0
 60 63  1  0     0  0
 63 64  1  0     0  0
 64 65  1  0     0  0
 64 78  2  0     0  0
 65 66  1  0     0  0
 66 67  2  0     0  0
 67 68  1  0     0  0
 68 69  2  0     0  0
 69 70  1  0     0  0
 66 70  1  0     0  0
 68 71  1  0     0  0
 71 72  1  0     0  0
 71 76  1  0     0  0
 71 77  1  0     0  0
 72 73  1  0     0  0
 72 74  1  0     0  0
 72 75  1  0     0  0
M  STY  1   1 MUL
M  SLB  1   1   1
M  SCN  1   1 HT 
M  SAL   1 15   1   2   3   4   5   6   7   8   9  10  11  12  13  14  15
M  SAL   1 15  16  17  18  19  20  21  22  23  24  25  26  27  28  29  30
M  SAL   1 15  31  32  33  34  35  36  47  48  49  50  51  52  53  54  55
M  SAL   1 15  56  57  58  59  60  61  62  63  64  65  66  67  68  69  70
M  SAL   1 12  71  72  73  74  75  76  77  78  79  80  81  82
M  SPA   1 15   1   2   3   4   5   6  10   9   8   7  15  16  17  18  19
M  SPA   1 15  20  21  22  23  25  26  27  28  29  30  31  34  35  36  32
M  SPA   1  6  33  24  13  14  11  12
M  SDI   1  4    5.3200  -20.9300    5.3200  -12.6700
M  SDI   1  4   30.5200  -12.6700   30.5200  -20.9300
M  SMT   1 2
M  END
