 
 
 
 32 35  0  0  0  0  0  0  0  0999 V2000
   17.7800  -17.0100    0.0000 N   0  0  0  0  0  0  0  0  0  0  0  0
   17.7800  -15.6100    0.0000 C   0  0  0  0  0  0  0  0  0  0  0  0
   16.5200  -14.9100    0.0000 C   0  0  0  0  0  0  0  0  0  0  0  0
   15.3300  -15.6100    0.0000 C   0  0  0  0  0  0  0  0  0  0  0  0
   15.3300  -17.0100    0.0000 N   0  0  0  0  0  0  0  0  0  0  0  0
   16.5200  -17.7100    0.0000 C   0  0  0  0  0  0  0  0  0  0  0  0
   14.1400  -14.9100    0.0000 C   0  0  0  0  0  0  0  0  0  0  0  0
   14.1400  -13.5100    0.0000 C   0  0  0  0  0  0  0  0  0  0  0  0
   12.8800  -12.8100    0.0000 C   0  0  0  0  0  0  0  0  0  0  0  0
   11.6900  -13.5100    0.0000 C   0  0  0  0  0  0  0  0  0  0  0  0
   11.6900  -14.9100    0.0000 C   0  0  0  0  0  0  0  0  0  0  0  0
   12.8800  -15.6100    0.0000 C   0  0  0  0  0  0  0  0  0  0  0  0
   12.8800  -17.0100    0.0000 C   0  0  0  0  0  0  0  0  0  0  0  0
   10.4300  -15.6100    0.0000 C   0  0  0  0  0  0  0  0  0  0  0  0
    9.2400  -16.3100    0.0000 N   0  0  0  0  0  0  0  0  0  0  0  0
   16.5200  -19.1100    0.0000 N   0  0  0  0  0  0  0  0  0  0  0  0
   18.9700  -14.9100    0.0000 C   0  0  0  0  0  0  0  0  0  0  0  0
   20.2300  -15.4700    0.0000 C   0  0  0  0  0  0  0  0  0  0  0  0
   21.1400  -14.4200    0.0000 N   0  0  0  0  0  0  0  0  0  0  0  0
   20.4400  -13.2300    0.0000 N   0  0  0  0  0  0  0  0  0  0  0  0
   19.1100  -13.5100    0.0000 N   0  0  0  0  0  0  0  0  0  0  0  0
   22.6100  -14.5600    0.0000 C   0  0  0  0  0  0  0  0  0  0  0  0
   23.1700  -15.9600    0.0000 C   0  0  0  0  0  0  0  0  0  0  0  0
   22.4700  -17.0800    0.0000 C   0  0  0  0  0  0  0  0  0  0  0  0
   23.1700  -18.3400    0.0000 C   0  0  0  0  0  0  0  0  0  0  0  0
   24.5700  -18.3400    0.0000 C   0  0  0  0  0  0  0  0  0  0  0  0
   25.2700  -17.1500    0.0000 C   0  0  0  0  0  0  0  0  0  0  0  0
   24.5700  -15.8900    0.0000 N   0  0  0  0  0  0  0  0  0  0  0  0
   26.6700  -17.1500    0.0000 C   0  0  0  0  0  0  0  0  0  0  0  0
   28.0700  -17.1500    0.0000 O   0  0  0  0  0  0  0  0  0  0  0  0
   26.6700  -18.5500    0.0000 C   0  0  0  0  0  0  0  0  0  0  0  0
   26.6700  -15.7500    0.0000 C   0  0  0  0  0  0  0  0  0  0  0  0
  1  2  2  0     0  0
  2  3  1  0     0  0
  3  4  2  0     0  0
  4  5  1  0     0  0
  5  6  2  0     0  0
  1  6  1  0     0  0
  4  7  1  0     0  0
  7  8  2  0     0  0
  8  9  1  0     0  0
  9 10  2  0     0  0
 10 11  1  0     0  0
 11 12  2  0     0  0
  7 12  1  0     0  0
 12 13  1  0     0  0
 11 14  1  0     0  0
 14 15  3  0     0  0
  6 16  1  0     0  0
  2 17  1  0     0  0
 17 18  2  0     0  0
 18 19  1  0     0  0
 19 20  1  0     0  0
 20 21  2  0     0  0
 17 21  1  0     0  0
 19 22  1  0     0  0
 22 23  1  0     0  0
 23 24  2  0     0  0
 24 25  1  0     0  0
 25 26  2  0     0  0
 26 27  1  0     0  0
 27 28  2  0     0  0
 23 28  1  0     0  0
 27 29  1  0     0  0
 29 30  1  0     0  0
 29 31  1  0     0  0
 29 32  1  0     0  0
M  END
