 
 
 
 30 33  0  0  0  0  0  0  0  0999 V2000
   20.8600  -13.2300    0.0000 C   0  0  0  0  0  0  0  0  0  0  0  0
   20.8600  -14.6300    0.0000 C   0  0  0  0  0  0  0  0  0  0  0  0
   22.0724  -15.3300    0.0000 C   0  0  0  0  0  0  0  0  0  0  0  0
   23.2849  -14.6300    0.0000 C   0  0  0  0  0  0  0  0  0  0  0  0
   23.2849  -13.2300    0.0000 O   0  0  0  0  0  0  0  0  0  0  0  0
   22.0724  -12.5300    0.0000 C   0  0  0  0  0  0  0  0  0  0  0  0
   19.6476  -15.3300    0.0000 N   0  0  0  0  0  0  0  0  0  0  0  0
   18.4521  -14.6396    0.0000 C   0  0  0  0  0  0  0  0  0  0  0  0
   17.2647  -15.3251    0.0000 C   0  0  0  0  0  0  0  0  0  0  0  0
   18.4520  -13.2303    0.0000 O   0  0  0  0  0  0  0  0  0  0  0  0
   16.0735  -14.6371    0.0000 C   0  0  0  0  0  0  0  0  0  0  0  0
   14.8610  -15.3369    0.0000 C   0  0  0  0  0  0  0  0  0  0  0  0
   14.8608  -16.7369    0.0000 C   0  0  0  0  0  0  0  0  0  0  0  0
   16.0520  -17.4249    0.0000 N   0  0  0  0  0  0  0  0  0  0  0  0
   17.2645  -16.7251    0.0000 N   0  0  0  0  0  0  0  0  0  0  0  0
   13.6358  -17.4441    0.0000 O   0  0  0  0  0  0  0  0  0  0  0  0
   12.4281  -16.7467    0.0000 C   0  0  0  0  0  0  0  0  0  0  0  0
   11.2468  -17.4287    0.0000 C   0  0  0  0  0  0  0  0  0  0  0  0
    9.9878  -16.8679    0.0000 C   0  0  0  0  0  0  0  0  0  0  0  0
    9.0654  -17.8921    0.0000 O   0  0  0  0  0  0  0  0  0  0  0  0
    9.7544  -19.0857    0.0000 N   0  0  0  0  0  0  0  0  0  0  0  0
   11.1026  -18.7994    0.0000 C   0  0  0  0  0  0  0  0  0  0  0  0
    9.6984  -15.5051    0.0000 C   0  0  0  0  0  0  0  0  0  0  0  0
   12.1733  -19.7635    0.0000 C   0  0  0  0  0  0  0  0  0  0  0  0
   11.8873  -21.1091    0.0000 C   0  0  0  0  0  0  0  0  0  0  0  0
   12.9277  -22.0459    0.0000 C   0  0  0  0  0  0  0  0  0  0  0  0
   14.2592  -21.6133    0.0000 C   0  0  0  0  0  0  0  0  0  0  0  0
   14.5452  -20.2677    0.0000 N   0  0  0  0  0  0  0  0  0  0  0  0
   13.5048  -19.3309    0.0000 C   0  0  0  0  0  0  0  0  0  0  0  0
   15.3194  -22.5679    0.0000 C   0  0  0  0  0  0  0  0  0  0  0  0
  1  2  1  0     0  0
  2  3  1  0     0  0
  3  4  1  0     0  0
  4  5  1  0     0  0
  5  6  1  0     0  0
  1  6  1  0     0  0
  2  7  1  0     0  0
  7  8  1  0     0  0
  8  9  1  0     0  0
  8 10  2  0     0  0
  9 11  1  0     0  0
 11 12  2  0     0  0
 12 13  1  0     0  0
 13 14  2  0     0  0
 14 15  1  0     0  0
  9 15  2  0     0  0
 13 16  1  0     0  0
 16 17  1  0     0  0
 17 18  1  0     0  0
 18 19  2  0     0  0
 19 20  1  0     0  0
 20 21  1  0     0  0
 21 22  2  0     0  0
 18 22  1  0     0  0
 19 23  1  0     0  0
 22 24  1  0     0  0
 24 25  2  0     0  0
 25 26  1  0     0  0
 26 27  2  0     0  0
 27 28  1  0     0  0
 28 29  2  0     0  0
 24 29  1  0     0  0
 27 30  1  0     0  0
M  END
