 
 
 
 36 40  0  0  1  0  0  0  0  0999 V2000
   41.5422  -17.6362    0.0000 C   0  0  0  0  0  0  0  0  0  0  0  0
   42.9375  -17.2176    0.0000 N   0  0  0  0  0  0  0  0  0  0  0  0
   42.9375  -15.8223    0.0000 C   0  0  0  0  0  0  0  0  0  0  0  0
   41.6119  -15.3340    0.0000 C   0  0  0  0  0  0  0  0  0  0  0  0
   40.7748  -16.4502    0.0000 C   0  0  0  0  0  0  0  0  0  0  0  0
   44.0537  -17.9153    0.0000 C   0  0  0  0  0  0  0  0  0  0  0  0
   45.2397  -17.2176    0.0000 C   0  0  0  0  0  0  0  0  0  0  0  0
   44.0537  -19.3106    0.0000 O   0  0  0  0  0  0  0  0  0  0  0  0
   46.4955  -16.5200    0.0000 C   0  0  0  0  0  0  0  0  0  0  0  0
   47.6815  -15.8223    0.0000 C   0  0  0  0  0  0  0  0  0  0  0  0
   39.3795  -16.4502    0.0000 N   0  0  0  0  0  0  0  0  0  0  0  0
   38.5423  -15.3340    0.0000 C   0  0  0  0  0  0  0  0  0  0  0  0
   37.2167  -15.8223    0.0000 C   0  0  0  0  0  0  0  0  0  0  0  0
   37.2167  -17.2176    0.0000 C   0  0  0  0  0  0  0  0  0  0  0  0
   38.5423  -17.6362    0.0000 C   0  0  0  0  0  0  0  0  0  0  0  0
   38.8213  -13.9387    0.0000 C   0  0  0  0  0  0  0  0  0  0  0  0
   37.7749  -13.0317    0.0000 N   0  0  0  0  0  0  0  0  0  0  0  0
   36.3796  -13.5201    0.0000 N   0  0  0  0  0  0  0  0  0  0  0  0
   36.1703  -14.9154    0.0000 C   0  0  0  0  0  0  0  0  0  0  0  0
   40.1469  -13.5201    0.0000 O   0  0  0  0  0  0  0  0  0  0  0  0
   34.8447  -15.3340    0.0000 N   0  0  0  0  0  0  0  0  0  0  0  0
   36.1005  -18.0548    0.0000 C   0  0  0  0  0  0  0  0  0  0  0  0
   36.1005  -19.4501    0.0000 C   0  0  0  0  0  0  0  0  0  0  0  0
   34.9145  -20.1478    0.0000 C   0  0  0  0  0  0  0  0  0  0  0  0
   33.6587  -19.4501    0.0000 C   0  0  0  0  0  0  0  0  0  0  0  0
   33.6587  -18.0548    0.0000 C   0  0  0  0  0  0  0  0  0  0  0  0
   34.9145  -17.3572    0.0000 C   0  0  0  0  0  0  0  0  0  0  0  0
   32.4727  -20.1478    0.0000 O   0  0  0  0  0  0  0  0  0  0  0  0
   31.2169  -19.4501    0.0000 C   0  0  0  0  0  0  0  0  0  0  0  0
   31.2169  -18.0548    0.0000 C   0  0  0  0  0  0  0  0  0  0  0  0
   30.0309  -17.3572    0.0000 C   0  0  0  0  0  0  0  0  0  0  0  0
   28.8449  -18.0548    0.0000 C   0  0  0  0  0  0  0  0  0  0  0  0
   28.8449  -19.5199    0.0000 C   0  0  0  0  0  0  0  0  0  0  0  0
   30.0309  -20.1478    0.0000 C   0  0  0  0  0  0  0  0  0  0  0  0
   30.0309  -21.5431    0.0000 F   0  0  0  0  0  0  0  0  0  0  0  0
   32.4029  -17.3572    0.0000 F   0  0  0  0  0  0  0  0  0  0  0  0
  1  2  1  0     0  0
  2  3  1  0     0  0
  3  4  1  0     0  0
  4  5  1  0     0  0
  1  5  1  0     0  0
  2  6  1  0     0  0
  6  7  1  0     0  0
  6  8  2  0     0  0
  7  9  3  0     0  0
  9 10  1  0     0  0
  5 11  1  6     0  0
 11 12  1  0     0  0
 12 13  2  0     0  0
 13 14  1  0     0  0
 14 15  2  0     0  0
 11 15  1  0     0  0
 12 16  1  0     0  0
 16 17  1  0     0  0
 17 18  1  0     0  0
 18 19  2  0     0  0
 13 19  1  0     0  0
 16 20  2  0     0  0
 19 21  1  0     0  0
 14 22  1  0     0  0
 22 23  2  0     0  0
 23 24  1  0     0  0
 24 25  2  0     0  0
 25 26  1  0     0  0
 26 27  2  0     0  0
 22 27  1  0     0  0
 25 28  1  0     0  0
 28 29  1  0     0  0
 29 30  2  0     0  0
 30 31  1  0     0  0
 31 32  2  0     0  0
 32 33  1  0     0  0
 33 34  2  0     0  0
 29 34  1  0     0  0
 34 35  1  0     0  0
 30 36  1  0     0  0
M  END
