 
 
 
 39 44  0  0  1  0  0  0  0  0999 V2000
   23.2400  -33.6700    0.0000 C   0  0  0  0  0  0  0  0  0  0  0  0
   23.2400  -32.2700    0.0000 C   0  0  0  0  0  0  0  0  0  0  0  0
   24.4300  -31.5700    0.0000 C   0  0  0  0  0  0  0  0  0  0  0  0
   25.6900  -32.2700    0.0000 C   0  0  0  0  0  0  0  0  0  0  0  0
   25.6900  -33.6700    0.0000 C   0  0  0  0  0  0  0  0  0  0  0  0
   24.4300  -34.3700    0.0000 C   0  0  0  0  0  0  0  0  0  0  0  0
   27.0200  -31.8500    0.0000 C   0  0  0  0  0  0  0  0  0  0  0  0
   27.7900  -32.9700    0.0000 N   0  0  0  0  0  0  0  0  0  0  0  0
   27.0200  -34.0900    0.0000 C   0  0  0  0  0  0  0  0  0  0  0  0
   27.4400  -30.5200    0.0000 O   0  0  0  0  0  0  0  0  0  0  0  0
   27.4400  -35.4200    0.0000 O   0  0  0  0  0  0  0  0  0  0  0  0
   24.4300  -30.1700    0.0000 N   0  0  0  0  0  0  0  0  0  0  0  0
   23.2400  -29.4700    0.0000 C   0  0  0  0  0  0  0  0  0  0  0  0
   22.0500  -30.1700    0.0000 C   0  0  0  0  0  0  0  0  0  0  0  0
   22.0500  -31.5700    0.0000 C   0  0  0  0  0  0  0  0  0  0  0  0
   20.7900  -32.2700    0.0000 C   0  0  0  0  0  0  0  0  0  0  0  0
   19.6000  -31.5700    0.0000 C   0  0  0  0  0  0  0  0  0  0  0  0
   19.6000  -30.1700    0.0000 C   0  0  0  0  0  0  0  0  0  0  0  0
   20.7900  -29.4700    0.0000 C   0  0  0  0  0  0  0  0  0  0  0  0
   18.4100  -32.2700    0.0000 C   0  0  0  0  0  0  0  0  0  0  0  0
   20.7900  -28.0700    0.0000 F   0  0  0  0  0  0  0  0  0  0  0  0
   17.1500  -31.5700    0.0000 N   0  0  0  0  0  0  0  0  0  0  0  0
   15.8200  -31.9200    0.0000 C   0  0  0  0  0  0  0  0  0  0  0  0
   15.4700  -30.5900    0.0000 C   0  0  0  0  0  0  0  0  0  0  0  0
   16.8000  -30.2400    0.0000 C   0  0  0  0  0  0  0  0  0  0  0  0
   14.2100  -29.8900    0.0000 N   0  0  0  0  0  0  0  0  0  0  0  0
   13.0200  -30.5900    0.0000 C   0  0  0  0  0  0  0  0  0  0  0  0
   11.8300  -29.8900    0.0000 C   0  0  0  0  0  0  0  0  0  0  0  0
   11.8300  -28.4900    0.0000 O   0  0  0  0  0  0  0  0  0  0  0  0
   13.0200  -27.7900    0.0000 C   0  0  0  0  0  0  0  0  0  0  0  0
   14.2100  -28.4900    0.0000 C   0  0  0  0  0  0  0  0  0  0  0  0
   29.1900  -32.9700    0.0000 C   0  0  0  0  0  0  0  0  0  0  0  0
   29.8900  -34.1824    0.0000 C   0  0  0  0  0  0  0  0  0  0  0  0
   31.2900  -34.1824    0.0000 C   0  0  0  0  0  0  0  0  0  0  0  0
   31.9900  -32.9700    0.0000 C   0  0  0  0  0  0  0  0  0  0  0  0
   31.2900  -31.7576    0.0000 N   0  0  0  0  0  0  0  0  0  0  0  0
   29.8900  -31.7576    0.0000 C   0  0  0  0  0  0  0  0  0  0  0  0
   29.1996  -30.5621    0.0000 O   0  0  0  0  0  0  0  0  0  0  0  0
   33.3900  -32.9700    0.0000 O   0  0  0  0  0  0  0  0  0  0  0  0
  1  2  2  0     0  0
  2  3  1  0     0  0
  3  4  2  0     0  0
  4  5  1  0     0  0
  5  6  2  0     0  0
  1  6  1  0     0  0
  4  7  1  0     0  0
  7  8  1  0     0  0
  8  9  1  0     0  0
  5  9  1  0     0  0
  7 10  2  0     0  0
  9 11  2  0     0  0
  3 12  1  0     0  0
 12 13  1  0     0  0
 13 14  1  0     0  0
 14 15  2  0     0  0
 15 16  1  0     0  0
 16 17  2  0     0  0
 17 18  1  0     0  0
 18 19  2  0     0  0
 14 19  1  0     0  0
 17 20  1  0     0  0
 19 21  1  0     0  0
 20 22  1  0     0  0
 22 23  1  0     0  0
 23 24  1  0     0  0
 24 25  1  0     0  0
 22 25  1  0     0  0
 24 26  1  0     0  0
 26 27  1  0     0  0
 27 28  1  0     0  0
 28 29  1  0     0  0
 29 30  1  0     0  0
 30 31  1  0     0  0
 26 31  1  0     0  0
 32  8  1  6     0  0
 32 33  1  0     0  0
 33 34  1  0     0  0
 34 35  1  0     0  0
 35 36  1  0     0  0
 36 37  1  0     0  0
 32 37  1  0     0  0
 37 38  2  0     0  0
 35 39  2  0     0  0
M  END
