 
 
 
 32 36  0  0  1  0  0  0  0  0999 V2000
   18.3400  -10.1500    0.0000 S   0  0  0  0  0  0  0  0  0  0  0  0
   19.5300  -10.8500    0.0000 C   0  0  0  0  0  0  0  0  0  0  0  0
   17.1500  -10.8500    0.0000 N   0  0  0  0  0  0  0  0  0  0  0  0
   15.8900  -10.2900    0.0000 C   0  0  0  0  0  0  0  0  0  0  0  0
   14.9100  -11.3400    0.0000 C   0  0  0  0  0  0  0  0  0  0  0  0
   15.6100  -12.5300    0.0000 C   0  0  0  0  0  0  0  0  0  0  0  0
   17.0100  -12.2500    0.0000 C   0  0  0  0  0  0  0  0  0  0  0  0
   13.5800  -11.6200    0.0000 C   0  0  0  0  0  0  0  0  0  0  0  0
   13.4400  -12.9500    0.0000 N   0  0  0  0  0  0  0  0  0  0  0  0
   14.7000  -13.5100    0.0000 C   0  0  0  0  0  0  0  0  0  0  0  0
   11.0600  -12.9500    0.0000 C   0  0  0  0  0  0  0  0  0  0  0  0
   12.2500  -13.6500    0.0000 C   0  0  0  0  0  0  0  0  0  0  0  0
   12.2500  -15.0500    0.0000 O   0  0  0  0  0  0  0  0  0  0  0  0
    9.8700  -13.6500    0.0000 C   0  0  0  0  0  0  0  0  0  0  0  0
    8.6800  -12.9500    0.0000 O   0  0  0  0  0  0  0  0  0  0  0  0
   11.0600  -11.5500    0.0000 C   0  0  0  0  0  0  0  0  0  0  0  0
    9.8700   -9.4500    0.0000 C   0  0  0  0  0  0  0  0  0  0  0  0
    9.8700  -10.8500    0.0000 C   0  0  0  0  0  0  0  0  0  0  0  0
   12.3200  -10.8500    0.0000 C   0  0  0  0  0  0  0  0  0  0  0  0
   12.3200   -9.4500    0.0000 C   0  0  0  0  0  0  0  0  0  0  0  0
   11.0600   -8.7500    0.0000 C   0  0  0  0  0  0  0  0  0  0  0  0
   19.5300  -12.2500    0.0000 C   0  0  0  0  0  0  0  0  0  0  0  0
   20.7200  -12.9500    0.0000 C   0  0  0  0  0  0  0  0  0  0  0  0
   21.9800  -12.2500    0.0000 C   0  0  0  0  0  0  0  0  0  0  0  0
   21.9800  -10.8500    0.0000 N   0  0  0  0  0  0  0  0  0  0  0  0
   20.7200  -10.1500    0.0000 C   0  0  0  0  0  0  0  0  0  0  0  0
   20.6969  -14.3498    0.0000 O   0  0  0  0  0  0  0  0  0  0  0  0
   21.8976  -15.0697    0.0000 C   0  0  0  0  0  0  0  0  0  0  0  0
   23.1576  -14.3697    0.0000 C   0  0  0  0  0  0  0  0  0  0  0  0
   23.1807  -12.9699    0.0000 O   0  0  0  0  0  0  0  0  0  0  0  0
   17.6400   -8.9376    0.0000 O   0  0  0  0  0  0  0  0  0  0  0  0
   19.0400   -8.9376    0.0000 O   0  0  0  0  0  0  0  0  0  0  0  0
  1  2  1  0     0  0
  1  3  1  0     0  0
  3  4  1  0     0  0
  4  5  1  0     0  0
  5  6  2  0     0  0
  6  7  1  0     0  0
  3  7  1  0     0  0
  5  8  1  0     0  0
  8  9  1  0     0  0
  9 10  1  0     0  0
  6 10  1  0     0  0
 11 12  1  0     0  0
 12  9  1  0     0  0
 12 13  2  0     0  0
 11 14  1  6     0  0
 14 15  1  0     0  0
 11 16  1  0     0  0
 17 18  2  0     0  0
 18 16  1  0     0  0
 16 19  2  0     0  0
 19 20  1  0     0  0
 20 21  2  0     0  0
 17 21  1  0     0  0
  2 22  2  0     0  0
 22 23  1  0     0  0
 23 24  2  0     0  0
 24 25  1  0     0  0
 25 26  2  0     0  0
  2 26  1  0     0  0
 23 27  1  0     0  0
 27 28  1  0     0  0
 28 29  1  0     0  0
 29 30  1  0     0  0
 24 30  1  0     0  0
  1 31  2  0     0  0
  1 32  2  0     0  0
M  END
