 
 
 
 28 31  0  0  0  0  0  0  0  0999 V2000
    8.0500  -26.0400    0.0000 C   0  0  0  0  0  0  0  0  0  0  0  0
    8.0500  -27.4400    0.0000 C   0  0  0  0  0  0  0  0  0  0  0  0
    9.2624  -28.1400    0.0000 C   0  0  0  0  0  0  0  0  0  0  0  0
   10.4749  -27.4400    0.0000 N   0  0  0  0  0  0  0  0  0  0  0  0
   10.4749  -26.0400    0.0000 N   0  0  0  0  0  0  0  0  0  0  0  0
    9.2624  -25.3400    0.0000 C   0  0  0  0  0  0  0  0  0  0  0  0
    6.7185  -25.6074    0.0000 C   0  0  0  0  0  0  0  0  0  0  0  0
    5.8956  -26.7400    0.0000 S   0  0  0  0  0  0  0  0  0  0  0  0
    6.7185  -27.8726    0.0000 C   0  0  0  0  0  0  0  0  0  0  0  0
    9.2624  -29.5398    0.0000 O   0  0  0  0  0  0  0  0  0  0  0  0
    9.2624  -23.9402    0.0000 C   0  0  0  0  0  0  0  0  0  0  0  0
   10.4580  -23.2498    0.0000 C   0  0  0  0  0  0  0  0  0  0  0  0
   11.6452  -23.9352    0.0000 O   0  0  0  0  0  0  0  0  0  0  0  0
   10.4582  -21.8403    0.0000 O   0  0  0  0  0  0  0  0  0  0  0  0
   11.7060  -28.1510    0.0000 C   0  0  0  0  0  0  0  0  0  0  0  0
   12.9112  -27.4553    0.0000 C   0  0  0  0  0  0  0  0  0  0  0  0
   14.1584  -28.0107    0.0000 S   0  0  0  0  0  0  0  0  0  0  0  0
   15.0720  -26.9961    0.0000 C   0  0  0  0  0  0  0  0  0  0  0  0
   14.3894  -25.8137    0.0000 C   0  0  0  0  0  0  0  0  0  0  0  0
   13.0539  -26.0975    0.0000 N   0  0  0  0  0  0  0  0  0  0  0  0
   16.4720  -26.9962    0.0000 C   0  0  0  0  0  0  0  0  0  0  0  0
   17.1721  -25.7838    0.0000 C   0  0  0  0  0  0  0  0  0  0  0  0
   16.4895  -24.6013    0.0000 C   0  0  0  0  0  0  0  0  0  0  0  0
   15.0895  -24.6013    0.0000 C   0  0  0  0  0  0  0  0  0  0  0  0
   17.2104  -23.3521    0.0000 C   0  0  0  0  0  0  0  0  0  0  0  0
   17.9104  -22.1396    0.0000 F   0  0  0  0  0  0  0  0  0  0  0  0
   15.9980  -22.6521    0.0000 F   0  0  0  0  0  0  0  0  0  0  0  0
   18.4228  -24.0521    0.0000 F   0  0  0  0  0  0  0  0  0  0  0  0
  1  2  1  0     0  0
  2  3  1  0     0  0
  3  4  1  0     0  0
  4  5  1  0     0  0
  5  6  2  0     0  0
  1  6  1  0     0  0
  1  7  2  0     0  0
  7  8  1  0     0  0
  8  9  1  0     0  0
  2  9  2  0     0  0
  3 10  2  0     0  0
  6 11  1  0     0  0
 11 12  1  0     0  0
 12 13  1  0     0  0
 12 14  2  0     0  0
  4 15  1  0     0  0
 15 16  1  0     0  0
 16 17  1  0     0  0
 17 18  1  0     0  0
 18 19  1  0     0  0
 19 20  1  0     0  0
 16 20  2  0     0  0
 18 21  2  0     0  0
 21 22  1  0     0  0
 22 23  2  0     0  0
 23 24  1  0     0  0
 19 24  2  0     0  0
 23 25  1  0     0  0
 25 26  1  0     0  0
 25 27  1  0     0  0
 25 28  1  0     0  0
M  END
