 
 
 
 36 38  0  0  1  0  0  0  0  0999 V2000
   15.0816  -14.6043    0.0000 C   0  0  1  0  0  0  0  0  0  0  0  0
   13.8237  -15.0235    0.0000 C   0  0  0  0  0  0  0  0  0  0  0  0
   15.9201  -15.7223    0.0000 C   0  0  1  0  0  0  0  0  0  0  0  0
   15.9201  -13.3464    0.0000 C   0  0  0  0  0  0  0  0  0  0  0  0
   14.2430  -13.4163    0.0000 C   0  0  0  0  0  0  0  0  0  0  0  0
   13.8237  -16.4211    0.0000 C   0  0  0  0  0  0  0  0  0  0  0  0
   12.5659  -14.3247    0.0000 C   0  0  0  0  0  0  0  0  0  0  0  0
   15.0816  -16.8404    0.0000 N   0  0  3  0  0  0  0  0  0  0  0  0
   17.2478  -15.3031    0.0000 N   0  0  0  0  0  0  0  0  0  0  0  0
   17.2478  -13.8356    0.0000 C   0  0  3  0  0  0  0  0  0  0  0  0
   12.5659  -17.1199    0.0000 C   0  0  0  0  0  0  0  0  0  0  0  0
   11.3779  -15.0235    0.0000 C   0  0  0  0  0  0  0  0  0  0  0  0
   15.5008  -18.1681    0.0000 C   0  0  0  0  0  0  0  0  0  0  0  0
   11.3779  -16.4211    0.0000 C   0  0  0  0  0  0  0  0  0  0  0  0
   10.1899  -14.3247    0.0000 O   0  0  0  0  0  0  0  0  0  0  0  0
    9.0020  -15.0235    0.0000 C   0  0  0  0  0  0  0  0  0  0  0  0
    7.8140  -14.3247    0.0000 N   0  0  0  0  0  0  0  0  0  0  0  0
    9.0020  -16.4211    0.0000 O   0  0  0  0  0  0  0  0  0  0  0  0
    6.4863  -15.0235    0.0000 C   0  0  0  0  0  0  0  0  0  0  0  0
   16.6888  -16.8404    0.0000 H   0  0  0  0  0  0  0  0  0  0  0  0
   18.3659  -16.0717    0.0000 C   0  0  0  0  0  0  0  0  0  0  0  0
    5.2983  -14.3247    0.0000 C   0  0  0  0  0  0  0  0  0  0  0  0
    4.1104  -15.0235    0.0000 C   0  0  0  0  0  0  0  0  0  0  0  0
    4.1104  -16.4211    0.0000 C   0  0  0  0  0  0  0  0  0  0  0  0
    5.2983  -17.1199    0.0000 C   0  0  0  0  0  0  0  0  0  0  0  0
    6.4863  -16.4910    0.0000 C   0  0  0  0  0  0  0  0  0  0  0  0
   23.2400  -15.4000    0.0000 C   0  0  0  0  0  0  0  0  0  0  0  0
   24.4524  -16.1000    0.0000 C   0  0  0  0  0  0  0  0  0  0  0  0
   22.0276  -16.1000    0.0000 O   0  0  0  0  0  0  0  0  0  0  0  0
   25.6479  -15.4096    0.0000 C   0  0  0  0  0  0  0  0  0  0  0  0
   26.8353  -16.0951    0.0000 C   0  0  0  0  0  0  0  0  0  0  0  0
   28.0265  -15.4071    0.0000 O   0  0  0  0  0  0  0  0  0  0  0  0
   23.2400  -14.0000    0.0000 O   0  0  0  0  0  0  0  0  0  0  0  0
   26.8355  -17.4998    0.0000 O   0  0  0  0  0  0  0  0  0  0  0  0
   24.4525  -17.4998    0.0000 O   0  0  0  0  0  0  0  0  0  0  0  0
   25.6480  -14.0003    0.0000 O   0  0  0  0  0  0  0  0  0  0  0  0
 16 17  1  0     0  0
 16 18  2  0     0  0
 17 19  1  0     0  0
  6  8  1  0     0  0
  9 10  1  0     0  0
 12 14  1  0     0  0
  3 20  1  6     0  0
  1  2  1  0     0  0
  1  3  1  0     0  0
  1  4  1  0     0  0
  1  5  1  6     0  0
  2  6  2  0     0  0
  2  7  1  0     0  0
  3  8  1  0     0  0
  3  9  1  0     0  0
  4 10  1  0     0  0
  6 11  1  0     0  0
  7 12  2  0     0  0
  8 13  1  0     0  0
 11 14  2  0     0  0
 12 15  1  0     0  0
 15 16  1  0     0  0
  9 21  1  0     0  0
 19 22  2  0     0  0
 22 23  1  0     0  0
 23 24  2  0     0  0
 24 25  1  0     0  0
 25 26  2  0     0  0
 19 26  1  0     0  0
 27 28  1  0     0  0
 27 29  1  0     0  0
 28 30  1  0     0  0
 30 31  1  0     0  0
 31 32  1  0     0  0
 27 33  2  0     0  0
 31 34  2  0     0  0
 28 35  1  1     0  0
 30 36  1  1     0  0
M  END
