 
 
 
 43 47  0  0  1  0  0  0  0  0999 V2000
   18.3400  -16.8000    0.0000 C   0  0  2  0  0  0  0  0  0  0  0  0
   17.2200  -16.0300    0.0000 O   0  0  0  0  0  0  0  0  0  0  0  0
   17.9200  -18.1300    0.0000 C   0  0  0  0  0  0  0  0  0  0  0  0
   16.1000  -16.8000    0.0000 C   0  0  1  0  0  0  0  0  0  0  0  0
   16.5200  -18.1300    0.0000 C   0  0  1  0  0  0  0  0  0  0  0  0
   15.7500  -19.1800    0.0000 O   0  0  0  0  0  0  0  0  0  0  0  0
   19.7400  -16.3100    0.0000 N   0  0  0  0  0  0  0  0  0  0  0  0
   19.7400  -14.8400    0.0000 C   0  0  0  0  0  0  0  0  0  0  0  0
   20.9300  -17.0100    0.0000 C   0  0  0  0  0  0  0  0  0  0  0  0
   22.1900  -16.3100    0.0000 N   0  0  0  0  0  0  0  0  0  0  0  0
   22.1900  -14.8400    0.0000 C   0  0  0  0  0  0  0  0  0  0  0  0
   20.9300  -14.1400    0.0000 C   0  0  0  0  0  0  0  0  0  0  0  0
   20.9300  -12.7400    0.0000 F   0  0  0  0  0  0  0  0  0  0  0  0
   23.3800  -14.1400    0.0000 O   0  0  0  0  0  0  0  0  0  0  0  0
   20.9300  -18.4100    0.0000 O   0  0  0  0  0  0  0  0  0  0  0  0
   14.9100  -16.1000    0.0000 C   0  0  0  0  0  0  0  0  0  0  0  0
   13.7200  -16.8000    0.0000 O   0  0  0  0  0  0  0  0  0  0  0  0
   12.5019  -16.1099    0.0000 P   0  0  0  0  0  0  0  0  0  0  0  0
   11.3205  -16.8050    0.0000 N   0  0  0  0  0  0  0  0  0  0  0  0
   10.1151  -16.1220    0.0000 C   0  0  0  0  0  0  0  0  0  0  0  0
    8.9439  -16.8109    0.0000 C   0  0  0  0  0  0  0  0  0  0  0  0
    7.7335  -16.1249    0.0000 O   0  0  0  0  0  0  0  0  0  0  0  0
    8.9552  -18.2000    0.0000 O   0  0  0  0  0  0  0  0  0  0  0  0
    6.5134  -16.8429    0.0000 C   0  0  0  0  0  0  0  0  0  0  0  0
    5.3043  -16.1584    0.0000 C   0  0  0  0  0  0  0  0  0  0  0  0
    5.2927  -14.7703    0.0000 C   0  0  0  0  0  0  0  0  0  0  0  0
    4.0745  -14.0804    0.0000 C   0  0  0  0  0  0  0  0  0  0  0  0
    2.8679  -14.7905    0.0000 C   0  0  0  0  0  0  0  0  0  0  0  0
    2.8795  -16.1787    0.0000 C   0  0  0  0  0  0  0  0  0  0  0  0
    4.0978  -16.8685    0.0000 C   0  0  0  0  0  0  0  0  0  0  0  0
   10.1031  -14.7008    0.0000 C   0  0  0  0  0  0  0  0  0  0  0  0
   11.5120  -15.1199    0.0000 O   0  0  0  0  0  0  0  0  0  0  0  0
   13.4919  -15.1199    0.0000 O   0  0  0  0  0  0  0  0  0  0  0  0
   13.1309  -13.7723    0.0000 C   0  0  0  0  0  0  0  0  0  0  0  0
   14.1262  -12.7769    0.0000 C   0  0  0  0  0  0  0  0  0  0  0  0
   13.7638  -11.4246    0.0000 C   0  0  0  0  0  0  0  0  0  0  0  0
   12.4114  -11.0623    0.0000 C   0  0  0  0  0  0  0  0  0  0  0  0
   11.4161  -12.0578    0.0000 C   0  0  0  0  0  0  0  0  0  0  0  0
   11.7785  -13.4101    0.0000 C   0  0  0  0  0  0  0  0  0  0  0  0
   15.4785  -13.1391    0.0000 C   0  0  0  0  0  0  0  0  0  0  0  0
   16.4684  -12.1491    0.0000 C   0  0  0  0  0  0  0  0  0  0  0  0
   16.1060  -10.7968    0.0000 C   0  0  0  0  0  0  0  0  0  0  0  0
   14.7536  -10.4346    0.0000 C   0  0  0  0  0  0  0  0  0  0  0  0
  1  2  1  0     0  0
  1  3  1  0     0  0
  2  4  1  0     0  0
  3  5  1  0     0  0
  5  6  1  6     0  0
  4  5  1  0     0  0
  1  7  1  1     0  0
  8  7  1  0     0  0
  9 10  1  0     0  0
 10 11  1  0     0  0
 11 12  1  0     0  0
  8 12  2  0     0  0
 12 13  1  0     0  0
 11 14  2  0     0  0
  9 15  2  0     0  0
  9  7  1  0     0  0
  4 16  1  1     0  0
 16 17  1  0     0  0
 17 18  1  0     0  0
 18 19  1  0     0  0
 19 20  1  0     0  0
 20 21  1  0     0  0
 21 22  1  0     0  0
 21 23  2  0     0  0
 22 24  1  0     0  0
 24 25  1  0     0  0
 25 26  2  0     0  0
 26 27  1  0     0  0
 27 28  2  0     0  0
 28 29  1  0     0  0
 29 30  2  0     0  0
 25 30  1  0     0  0
 20 31  1  6     0  0
 18 32  2  0     0  0
 18 33  1  0     0  0
 33 34  1  0     0  0
 34 35  2  0     0  0
 35 36  1  0     0  0
 36 37  2  0     0  0
 37 38  1  0     0  0
 38 39  2  0     0  0
 34 39  1  0     0  0
 35 40  1  0     0  0
 40 41  2  0     0  0
 41 42  1  0     0  0
 42 43  2  0     0  0
 36 43  1  0     0  0
M  END
