 
 
 
 30 32  0  0  0  0  0  0  0  0999 V2000
   15.4700  -15.4000    0.0000 C   0  0  0  0  0  0  0  0  0  0  0  0
   15.4700  -16.8000    0.0000 C   0  0  0  0  0  0  0  0  0  0  0  0
   14.2800  -17.5000    0.0000 C   0  0  0  0  0  0  0  0  0  0  0  0
   13.0200  -16.8000    0.0000 C   0  0  0  0  0  0  0  0  0  0  0  0
   13.0200  -15.4000    0.0000 C   0  0  0  0  0  0  0  0  0  0  0  0
   14.2800  -14.7000    0.0000 C   0  0  0  0  0  0  0  0  0  0  0  0
   11.8300  -14.7000    0.0000 N   0  0  0  0  0  0  0  0  0  0  0  0
   10.6400  -15.4000    0.0000 C   0  0  0  0  0  0  0  0  0  0  0  0
   10.6400  -16.8000    0.0000 C   0  0  0  0  0  0  0  0  0  0  0  0
    9.3800  -17.5000    0.0000 C   0  0  0  0  0  0  0  0  0  0  0  0
    8.1900  -16.8000    0.0000 C   0  0  0  0  0  0  0  0  0  0  0  0
    8.1900  -15.4000    0.0000 C   0  0  0  0  0  0  0  0  0  0  0  0
    9.3800  -14.7000    0.0000 C   0  0  0  0  0  0  0  0  0  0  0  0
    7.0000  -17.5000    0.0000 N   0  0  0  0  0  0  0  0  0  0  0  0
    5.7400  -16.8000    0.0000 C   0  0  0  0  0  0  0  0  0  0  0  0
    5.7400  -15.4000    0.0000 N   0  0  0  0  0  0  0  0  0  0  0  0
    7.0000  -14.7000    0.0000 C   0  0  0  0  0  0  0  0  0  0  0  0
    4.5500  -14.7000    0.0000 C   0  0  0  0  0  0  0  0  0  0  0  0
    7.0000  -13.3000    0.0000 O   0  0  0  0  0  0  0  0  0  0  0  0
    9.3800  -13.3000    0.0000 C   0  0  0  0  0  0  0  0  0  0  0  0
   11.8300  -17.5000    0.0000 F   0  0  0  0  0  0  0  0  0  0  0  0
   14.2800  -13.3000    0.0000 Cl  0  0  0  0  0  0  0  0  0  0  0  0
   16.6600  -14.7000    0.0000 N   0  0  0  0  0  0  0  0  0  0  0  0
   17.8500  -15.4000    0.0000 S   0  0  0  0  0  0  0  0  0  0  0  0
   19.1100  -16.1000    0.0000 C   0  0  0  0  0  0  0  0  0  0  0  0
   18.5500  -14.2100    0.0000 O   0  0  0  0  0  0  0  0  0  0  0  0
   17.1500  -16.5900    0.0000 O   0  0  0  0  0  0  0  0  0  0  0  0
   20.3000  -15.4000    0.0000 C   0  0  0  0  0  0  0  0  0  0  0  0
   21.4900  -16.1000    0.0000 C   0  0  0  0  0  0  0  0  0  0  0  0
   22.6800  -15.4000    0.0000 F   0  0  0  0  0  0  0  0  0  0  0  0
  1  2  2  0     0  0
  2  3  1  0     0  0
  3  4  2  0     0  0
  4  5  1  0     0  0
  5  6  2  0     0  0
  1  6  1  0     0  0
  5  7  1  0     0  0
  7  8  1  0     0  0
  8  9  2  0     0  0
  9 10  1  0     0  0
 10 11  2  0     0  0
 11 12  1  0     0  0
 12 13  2  0     0  0
  8 13  1  0     0  0
 11 14  1  0     0  0
 14 15  2  0     0  0
 15 16  1  0     0  0
 16 17  1  0     0  0
 12 17  1  0     0  0
 16 18  1  0     0  0
 17 19  2  0     0  0
 13 20  1  0     0  0
  4 21  1  0     0  0
  6 22  1  0     0  0
  1 23  1  0     0  0
 23 24  1  0     0  0
 24 25  1  0     0  0
 24 26  2  0     0  0
 24 27  2  0     0  0
 25 28  1  0     0  0
 28 29  1  0     0  0
 29 30  1  0     0  0
M  END
