 
 
 
 41 40  0  0  1  0  0  0  0  0999 V2000
    7.1469  -16.9563    0.0000 C   0  0  0  0  0  0  0  0  0  0  0  0
    8.3380  -16.2557    0.0000 C   0  0  0  0  0  0  0  0  0  0  0  0
    9.5992  -16.9563    0.0000 C   0  0  0  0  0  0  0  0  0  0  0  0
   10.7904  -16.2557    0.0000 C   0  0  0  0  0  0  0  0  0  0  0  0
   11.9815  -16.9563    0.0000 C   0  0  0  0  0  0  0  0  0  0  0  0
   13.2428  -16.2557    0.0000 C   0  0  0  0  0  0  0  0  0  0  0  0
   14.4339  -16.9563    0.0000 N   0  0  0  0  0  0  0  0  0  0  0  0
   15.6251  -16.2557    0.0000 C   0  0  0  0  0  0  0  0  0  0  0  0
   16.8863  -16.9563    0.0000 C   0  0  0  0  0  0  0  0  0  0  0  0
   18.0774  -16.2557    0.0000 N   0  0  0  0  0  0  0  0  0  0  0  0
   19.2686  -16.9563    0.0000 C   0  0  0  0  0  0  0  0  0  0  0  0
   20.5298  -16.2557    0.0000 C   0  0  0  0  0  0  0  0  0  0  0  0
   21.7209  -16.9563    0.0000 N   0  0  0  0  0  0  0  0  0  0  0  0
   22.9121  -16.2557    0.0000 C   0  0  0  0  0  0  0  0  0  0  0  0
   24.1733  -16.9563    0.0000 C   0  0  0  0  0  0  0  0  0  0  0  0
   25.3644  -16.2557    0.0000 C   0  0  0  0  0  0  0  0  0  0  0  0
   26.5556  -16.9563    0.0000 C   0  0  0  0  0  0  0  0  0  0  0  0
   27.8168  -16.2557    0.0000 C   0  0  0  0  0  0  0  0  0  0  0  0
   29.0080  -16.9563    0.0000 C   0  0  0  0  0  0  0  0  0  0  0  0
   30.1991  -16.2557    0.0000 N   0  0  0  0  0  0  0  0  0  0  0  0
   13.2428  -14.8543    0.0000 O   0  0  0  0  0  0  0  0  0  0  0  0
   15.6251  -14.8543    0.0000 C   0  0  0  0  0  0  0  0  0  0  0  0
   16.8863  -14.1536    0.0000 C   0  0  0  0  0  0  0  0  0  0  0  0
   18.0774  -14.8543    0.0000 C   0  0  0  0  0  0  0  0  0  0  0  0
   19.2686  -14.1536    0.0000 C   0  0  0  0  0  0  0  0  0  0  0  0
   19.2686  -12.7523    0.0000 C   0  0  0  0  0  0  0  0  0  0  0  0
   18.0774  -12.0516    0.0000 C   0  0  0  0  0  0  0  0  0  0  0  0
   16.8863  -12.7523    0.0000 C   0  0  0  0  0  0  0  0  0  0  0  0
   20.4597  -12.0516    0.0000 O   0  0  0  0  0  0  0  0  0  0  0  0
   21.7209  -12.7523    0.0000 P   0  0  0  0  0  0  0  0  0  0  0  0
   22.9121  -13.4530    0.0000 O   0  5  0  0  0  0  0  0  0  0  0  0
   22.4216  -11.5611    0.0000 O   0  0  0  0  0  0  0  0  0  0  0  0
   21.0203  -13.9434    0.0000 O   0  0  0  0  0  0  0  0  0  0  0  0
   16.8863  -18.3577    0.0000 O   0  0  0  0  0  0  0  0  0  0  0  0
   19.2686  -18.3577    0.0000 C   0  0  0  0  0  0  0  0  0  0  0  0
   18.0774  -19.0584    0.0000 C   0  0  0  0  0  0  0  0  0  0  0  0
   20.5298  -19.0584    0.0000 C   0  0  0  0  0  0  0  0  0  0  0  0
   18.0774  -20.4597    0.0000 C   0  0  0  0  0  0  0  0  0  0  0  0
   20.5298  -14.8543    0.0000 O   0  0  0  0  0  0  0  0  0  0  0  0
   29.0080  -18.3577    0.0000 O   0  0  0  0  0  0  0  0  0  0  0  0
   25.0600  -13.5100    0.0000 Na  0  3  0  0  0  0  0  0  0  0  0  0
  1  2  1  0     0  0
  2  3  1  0     0  0
  3  4  1  0     0  0
  4  5  1  0     0  0
  5  6  1  0     0  0
  6  7  1  0     0  0
  7  8  1  0     0  0
  8  9  1  0     0  0
  9 10  1  0     0  0
 11 10  1  6     0  0
 11 12  1  0     0  0
 12 13  1  0     0  0
 13 14  1  0     0  0
 14 15  1  0     0  0
 15 16  1  0     0  0
 16 17  1  0     0  0
 17 18  1  0     0  0
 18 19  1  0     0  0
 19 20  1  0     0  0
  6 21  2  0     0  0
  8 22  1  1     0  0
 22 23  1  0     0  0
 23 24  2  0     0  0
 24 25  1  0     0  0
 25 26  2  0     0  0
 26 27  1  0     0  0
 27 28  2  0     0  0
 23 28  1  0     0  0
 26 29  1  0     0  0
 29 30  1  0     0  0
 30 31  1  0     0  0
 30 32  1  0     0  0
 30 33  2  0     0  0
  9 34  2  0     0  0
 11 35  1  0     0  0
 35 36  1  0     0  0
 35 37  1  1     0  0
 36 38  1  0     0  0
 12 39  2  0     0  0
 19 40  2  0     0  0
M  CHG  2  31  -1  41   1
M  END
