 
 
 
 41 46  0  0  1  0  0  0  0  0999 V2000
   10.0100  -17.7100    0.0000 C   0  0  0  0  0  0  0  0  0  0  0  0
   10.0100  -16.3100    0.0000 C   0  0  0  0  0  0  0  0  0  0  0  0
   11.2000  -15.6100    0.0000 C   0  0  0  0  0  0  0  0  0  0  0  0
   12.4600  -16.3100    0.0000 C   0  0  0  0  0  0  0  0  0  0  0  0
   12.4600  -17.7100    0.0000 C   0  0  0  0  0  0  0  0  0  0  0  0
   11.2000  -18.4100    0.0000 C   0  0  0  0  0  0  0  0  0  0  0  0
   13.7900  -15.8900    0.0000 N   0  0  0  0  0  0  0  0  0  0  0  0
   14.5600  -17.0100    0.0000 C   0  0  0  0  0  0  0  0  0  0  0  0
   13.7900  -18.1300    0.0000 N   0  0  0  0  0  0  0  0  0  0  0  0
    8.8200  -18.4100    0.0000 C   0  0  0  0  0  0  0  0  0  0  0  0
    8.6800  -19.8100    0.0000 C   0  0  0  0  0  0  0  0  0  0  0  0
    7.2800  -20.0900    0.0000 N   0  0  0  0  0  0  0  0  0  0  0  0
    6.5800  -18.9000    0.0000 O   0  0  0  0  0  0  0  0  0  0  0  0
    7.4900  -17.8500    0.0000 C   0  0  0  0  0  0  0  0  0  0  0  0
    9.7300  -20.7900    0.0000 C   0  0  0  0  0  0  0  0  0  0  0  0
    7.2100  -16.4500    0.0000 C   0  0  0  0  0  0  0  0  0  0  0  0
   15.9600  -17.0100    0.0000 C   0  0  0  0  0  0  0  0  0  0  0  0
   16.6600  -15.8200    0.0000 C   0  0  0  0  0  0  0  0  0  0  0  0
   18.0600  -15.8200    0.0000 C   0  0  0  0  0  0  0  0  0  0  0  0
   18.7600  -17.0100    0.0000 C   0  0  0  0  0  0  0  0  0  0  0  0
   18.0600  -18.2000    0.0000 C   0  0  0  0  0  0  0  0  0  0  0  0
   16.6600  -18.2000    0.0000 N   0  0  0  0  0  0  0  0  0  0  0  0
   15.9600  -19.3900    0.0000 C   0  0  0  0  0  0  0  0  0  0  0  0
   16.6600  -20.5800    0.0000 C   0  0  0  0  0  0  0  0  0  0  0  0
   15.9600  -21.8400    0.0000 C   0  0  0  0  0  0  0  0  0  0  0  0
   14.5600  -21.8400    0.0000 C   0  0  0  0  0  0  0  0  0  0  0  0
   13.8600  -20.6500    0.0000 C   0  0  0  0  0  0  0  0  0  0  0  0
   14.5600  -19.3900    0.0000 C   0  0  0  0  0  0  0  0  0  0  0  0
   13.8600  -23.0300    0.0000 F   0  0  0  0  0  0  0  0  0  0  0  0
   12.4600  -20.6500    0.0000 F   0  0  0  0  0  0  0  0  0  0  0  0
   18.7600  -19.3900    0.0000 O   0  0  0  0  0  0  0  0  0  0  0  0
   14.2100  -14.5600    0.0000 C   0  0  0  0  0  0  0  0  0  0  0  0
   13.3000  -13.5100    0.0000 C   0  0  0  0  0  0  0  0  0  0  0  0
   13.7200  -12.1800    0.0000 C   0  0  0  0  0  0  0  0  0  0  0  0
   15.0500  -11.9000    0.0000 C   0  0  0  0  0  0  0  0  0  0  0  0
   16.0300  -12.9500    0.0000 C   0  0  0  0  0  0  0  0  0  0  0  0
   15.5400  -14.2800    0.0000 C   0  0  0  0  0  0  0  0  0  0  0  0
   15.4700  -10.5700    0.0000 O   0  0  0  0  0  0  0  0  0  0  0  0
   16.8700  -10.2900    0.0000 C   0  0  0  0  0  0  0  0  0  0  0  0
   12.8577  -14.9223    0.0000 H   0  0  0  0  0  0  0  0  0  0  0  0
   15.2600  -18.2224    0.0000 H   0  0  0  0  0  0  0  0  0  0  0  0
  1  2  2  0     0  0
  2  3  1  0     0  0
  3  4  2  0     0  0
  4  5  1  0     0  0
  5  6  2  0     0  0
  1  6  1  0     0  0
  4  7  1  0     0  0
  7  8  1  0     0  0
  8  9  2  0     0  0
  5  9  1  0     0  0
  1 10  1  0     0  0
 10 11  1  0     0  0
 11 12  2  0     0  0
 12 13  1  0     0  0
 13 14  1  0     0  0
 10 14  2  0     0  0
 11 15  1  0     0  0
 14 16  1  0     0  0
 17  8  1  0     0  0
 17 18  1  0     0  0
 18 19  1  0     0  0
 19 20  1  0     0  0
 20 21  1  0     0  0
 21 22  1  0     0  0
 17 22  1  0     0  0
 22 23  1  0     0  0
 23 24  2  0     0  0
 24 25  1  0     0  0
 25 26  2  0     0  0
 26 27  1  0     0  0
 27 28  2  0     0  0
 23 28  1  0     0  0
 26 29  1  0     0  0
 27 30  1  0     0  0
 21 31  2  0     0  0
 32  7  1  0     0  0
 32 33  1  0     0  0
 33 34  1  0     0  0
 34 35  1  0     0  0
 35 36  1  0     0  0
 36 37  1  0     0  0
 32 37  1  0     0  0
 35 38  1  1     0  0
 38 39  1  0     0  0
 32 40  1  1     0  0
 17 41  1  1     0  0
M  END
