 
 
 
 43 48  0  0  1  0  0  0  0  0999 V2000
   19.1557  -20.8948    0.0000 N   0  0  0  0  0  0  0  0  0  0  0  0
   20.3745  -20.1935    0.0000 C   0  0  0  0  0  0  0  0  0  0  0  0
   20.3766  -18.7874    0.0000 C   0  0  0  0  0  0  0  0  0  0  0  0
   19.1598  -18.0824    0.0000 N   0  0  0  0  0  0  0  0  0  0  0  0
   17.9410  -18.7837    0.0000 C   0  0  0  0  0  0  0  0  0  0  0  0
   17.9390  -20.1899    0.0000 C   0  0  0  0  0  0  0  0  0  0  0  0
   19.1621  -16.6545    0.0000 C   0  0  0  0  0  0  0  0  0  0  0  0
   20.3714  -15.9591    0.0000 N   0  0  0  0  0  0  0  0  0  0  0  0
   20.3738  -14.5529    0.0000 C   0  0  0  0  0  0  0  0  0  0  0  0
   19.1573  -13.8477    0.0000 N   0  0  0  0  0  0  0  0  0  0  0  0
   17.9480  -14.5432    0.0000 C   0  0  0  0  0  0  0  0  0  0  0  0
   17.9456  -15.9493    0.0000 C   0  0  0  0  0  0  0  0  0  0  0  0
   21.5923  -13.8522    0.0000 O   0  0  0  0  0  0  0  0  0  0  0  0
   21.5949  -12.4178    0.0000 C   0  0  0  0  0  0  0  0  0  0  0  0
   20.3900  -11.7157    0.0000 C   0  0  0  0  0  0  0  0  0  0  0  0
   20.5085  -10.3512    0.0000 N   0  0  0  0  0  0  0  0  0  0  0  0
   19.2474   -9.8168    0.0000 C   0  0  0  0  0  0  0  0  0  0  0  0
   18.3494  -10.8511    0.0000 C   0  0  0  0  0  0  0  0  0  0  0  0
   19.0556  -12.0247    0.0000 C   0  0  0  0  0  0  0  0  0  0  0  0
   21.7350   -9.6954    0.0000 C   0  0  0  0  0  0  0  0  0  0  0  0
   16.7315  -13.8380    0.0000 C   0  0  0  0  0  0  0  0  0  0  0  0
   15.5125  -14.5390    0.0000 N   0  0  0  0  0  0  0  0  0  0  0  0
   15.5101  -15.9452    0.0000 C   0  0  0  0  0  0  0  0  0  0  0  0
   16.7266  -16.6504    0.0000 C   0  0  0  0  0  0  0  0  0  0  0  0
   14.3012  -13.8371    0.0000 C   0  0  0  0  0  0  0  0  0  0  0  0
   14.3036  -12.4654    0.0000 C   0  0  0  0  0  0  0  0  0  0  0  0
   13.0869  -11.7603    0.0000 C   0  0  0  0  0  0  0  0  0  0  0  0
   11.8680  -12.4613    0.0000 C   0  0  0  0  0  0  0  0  0  0  0  0
   11.8657  -13.8329    0.0000 C   0  0  0  0  0  0  0  0  0  0  0  0
   13.0822  -14.5380    0.0000 C   0  0  0  0  0  0  0  0  0  0  0  0
   15.5225  -11.7644    0.0000 C   0  0  0  0  0  0  0  0  0  0  0  0
   15.5248  -10.3583    0.0000 C   0  0  0  0  0  0  0  0  0  0  0  0
   14.3083   -9.6531    0.0000 C   0  0  0  0  0  0  0  0  0  0  0  0
   13.0893  -10.3541    0.0000 C   0  0  0  0  0  0  0  0  0  0  0  0
   16.7573  -12.4801    0.0000 Cl  0  0  0  0  0  0  0  0  0  0  0  0
   16.7203  -20.8911    0.0000 C   0  0  0  0  0  0  0  0  0  0  0  0
   19.1536  -22.3009    0.0000 C   0  0  0  0  0  0  0  0  0  0  0  0
   20.3534  -22.9958    0.0000 C   0  0  0  0  0  0  0  0  0  0  0  0
   17.9350  -23.0021    0.0000 O   0  0  0  0  0  0  0  0  0  0  0  0
   20.3514  -24.3729    0.0000 C   0  0  0  0  0  0  0  0  0  0  0  0
   21.5804  -22.2900    0.0000 F   0  0  0  0  0  0  0  0  0  0  0  0
   15.5204  -20.1960    0.0000 C   0  0  0  0  0  0  0  0  0  0  0  0
   14.3036  -19.4911    0.0000 N   0  0  0  0  0  0  0  0  0  0  0  0
  1  2  1  0     0  0
  2  3  1  0     0  0
  3  4  1  0     0  0
  4  5  1  0     0  0
  5  6  1  0     0  0
  1  6  1  0     0  0
  4  7  1  0     0  0
  7  8  2  0     0  0
  8  9  1  0     0  0
  9 10  2  0     0  0
 10 11  1  0     0  0
 11 12  2  0     0  0
  7 12  1  0     0  0
  9 13  1  0     0  0
 13 14  1  0     0  0
 15 14  1  6     0  0
 15 16  1  0     0  0
 16 17  1  0     0  0
 17 18  1  0     0  0
 18 19  1  0     0  0
 15 19  1  0     0  0
 16 20  1  0     0  0
 11 21  1  0     0  0
 21 22  1  0     0  0
 22 23  1  0     0  0
 23 24  1  0     0  0
 12 24  1  0     0  0
 22 25  1  0     0  0
 25 26  2  0     0  0
 26 27  1  0     0  0
 27 28  2  0     0  0
 28 29  1  0     0  0
 29 30  2  0     0  0
 25 30  1  0     0  0
 26 31  1  0     0  0
 31 32  2  0     0  0
 32 33  1  0     0  0
 33 34  2  0     0  0
 27 34  1  0     0  0
 31 35  1  0     0  0
  6 36  1  1     0  0
  1 37  1  0     0  0
 37 38  1  0     0  0
 37 39  2  0     0  0
 38 40  2  0     0  0
 38 41  1  0     0  0
 36 42  1  0     0  0
 42 43  3  0     0  0
M  END
