 
 
 
 28 31  0  0  1  0  0  0  0  0999 V2000
   16.1159  -15.6333    0.0000 C   0  0  0  0  0  0  0  0  0  0  0  0
   16.1159  -17.0425    0.0000 C   0  0  0  0  0  0  0  0  0  0  0  0
   17.3137  -17.7471    0.0000 C   0  0  0  0  0  0  0  0  0  0  0  0
   18.5820  -17.0425    0.0000 C   0  0  0  0  0  0  0  0  0  0  0  0
   18.5820  -15.6333    0.0000 C   0  0  0  0  0  0  0  0  0  0  0  0
   17.3137  -14.9286    0.0000 C   0  0  0  0  0  0  0  0  0  0  0  0
   19.7799  -17.7471    0.0000 C   0  0  0  0  0  0  0  0  0  0  0  0
   20.9777  -17.0425    0.0000 C   0  0  0  0  0  0  0  0  0  0  0  0
   20.9777  -15.6333    0.0000 C   0  0  0  0  0  0  0  0  0  0  0  0
   19.7799  -14.9286    0.0000 C   0  0  0  0  0  0  0  0  0  0  0  0
   22.1756  -14.9286    0.0000 C   0  0  0  0  0  0  0  0  0  0  0  0
   14.9180  -17.7471    0.0000 C   0  0  0  0  0  0  0  0  0  0  0  0
   13.7202  -16.9720    0.0000 C   0  0  0  0  0  0  0  0  0  0  0  0
   12.6633  -17.8176    0.0000 C   0  0  0  0  0  0  0  0  0  0  0  0
   13.0860  -19.0859    0.0000 C   0  0  0  0  0  0  0  0  0  0  0  0
   14.4953  -19.0859    0.0000 C   0  0  0  0  0  0  0  0  0  0  0  0
   12.3109  -16.4788    0.0000 N   0  0  0  0  0  0  0  0  0  0  0  0
   23.3734  -15.6333    0.0000 C   0  0  0  0  0  0  0  0  0  0  0  0
   24.5713  -14.9286    0.0000 C   0  0  0  0  0  0  0  0  0  0  0  0
   25.7691  -15.6333    0.0000 C   0  0  0  0  0  0  0  0  0  0  0  0
   27.0374  -14.9286    0.0000 C   0  0  0  0  0  0  0  0  0  0  0  0
   27.0374  -13.5194    0.0000 C   0  0  0  0  0  0  0  0  0  0  0  0
   25.7691  -12.8148    0.0000 C   0  0  0  0  0  0  0  0  0  0  0  0
   24.5713  -13.5194    0.0000 C   0  0  0  0  0  0  0  0  0  0  0  0
   23.3734  -12.8148    0.0000 O   0  0  0  0  0  0  0  0  0  0  0  0
   22.1756  -13.5194    0.0000 C   0  0  0  0  0  0  0  0  0  0  0  0
   10.2676  -17.8176    0.0000 O   0  0  0  0  0  0  0  0  0  0  0  0
   11.4654  -18.5222    0.0000 C   0  0  0  0  0  0  0  0  0  0  0  0
  1  2  2  0     0  0
  2  3  1  0     0  0
  3  4  2  0     0  0
  4  5  1  0     0  0
  5  6  2  0     0  0
  1  6  1  0     0  0
  4  7  1  0     0  0
  7  8  1  0     0  0
  8  9  1  0     0  0
  9 10  1  0     0  0
  5 10  1  0     0  0
  9 11  1  6     0  0
 12  2  1  1     0  0
 12 13  1  0     0  0
 13 14  1  0     0  0
 14 15  1  0     0  0
 15 16  1  0     0  0
 12 16  1  0     0  0
 14 17  1  1     0  0
 11 18  1  0     0  0
 18 19  1  0     0  0
 19 20  2  0     0  0
 20 21  1  0     0  0
 21 22  2  0     0  0
 22 23  1  0     0  0
 23 24  2  0     0  0
 19 24  1  0     0  0
 24 25  1  0     0  0
 25 26  1  0     0  0
 27 28  1  0     0  0
 14 28  1  6     0  0
M  END
