 
 
 
 36 39  0  0  0  0  0  0  0  0999 V2000
    7.3500  -16.8700    0.0000 C   0  0  0  0  0  0  0  0  0  0  0  0
    7.3500  -18.2700    0.0000 C   0  0  0  0  0  0  0  0  0  0  0  0
    8.5624  -18.9700    0.0000 C   0  0  0  0  0  0  0  0  0  0  0  0
    9.7749  -18.2700    0.0000 C   0  0  0  0  0  0  0  0  0  0  0  0
    9.7749  -16.8700    0.0000 C   0  0  0  0  0  0  0  0  0  0  0  0
    8.5624  -16.1700    0.0000 C   0  0  0  0  0  0  0  0  0  0  0  0
   10.9873  -18.9700    0.0000 C   0  0  0  0  0  0  0  0  0  0  0  0
   12.1997  -18.2700    0.0000 C   0  0  0  0  0  0  0  0  0  0  0  0
   12.1997  -16.8700    0.0000 C   0  0  0  0  0  0  0  0  0  0  0  0
   10.9873  -16.1700    0.0000 N   0  0  0  0  0  0  0  0  0  0  0  0
    6.1376  -16.1700    0.0000 O   0  0  0  0  0  0  0  0  0  0  0  0
    4.9421  -16.8604    0.0000 C   0  0  0  0  0  0  0  0  0  0  0  0
    6.1376  -18.9700    0.0000 O   0  0  0  0  0  0  0  0  0  0  0  0
    4.9421  -18.2796    0.0000 C   0  0  0  0  0  0  0  0  0  0  0  0
   13.3973  -18.9615    0.0000 C   0  0  0  0  0  0  0  0  0  0  0  0
   13.3973  -20.3697    0.0000 C   0  0  0  0  0  0  0  0  0  0  0  0
   14.6098  -21.0697    0.0000 C   0  0  0  0  0  0  0  0  0  0  0  0
   15.8222  -20.3697    0.0000 C   0  0  0  0  0  0  0  0  0  0  0  0
   15.8222  -18.9615    0.0000 C   0  0  0  0  0  0  0  0  0  0  0  0
   14.6097  -18.2615    0.0000 N   0  0  0  0  0  0  0  0  0  0  0  0
   17.0331  -21.0688    0.0000 C   0  0  0  0  0  0  0  0  0  0  0  0
   18.2276  -20.3790    0.0000 C   0  0  0  0  0  0  0  0  0  0  0  0
   19.4155  -21.0647    0.0000 N   0  0  0  0  0  0  0  0  0  0  0  0
   18.2276  -18.9703    0.0000 O   0  0  0  0  0  0  0  0  0  0  0  0
   20.6071  -20.3733    0.0000 C   0  0  0  0  0  0  0  0  0  0  0  0
   21.9250  -20.7586    0.0000 C   0  0  0  0  0  0  0  0  0  0  0  0
   22.6987  -19.6243    0.0000 C   0  0  0  0  0  0  0  0  0  0  0  0
   21.8590  -18.5379    0.0000 N   0  0  0  0  0  0  0  0  0  0  0  0
   20.5663  -19.0008    0.0000 O   0  0  0  0  0  0  0  0  0  0  0  0
   24.0648  -19.5830    0.0000 C   0  0  0  0  0  0  0  0  0  0  0  0
   25.4648  -19.5830    0.0000 C   0  0  0  0  0  0  0  0  0  0  0  0
   24.1141  -18.2005    0.0000 C   0  0  0  0  0  0  0  0  0  0  0  0
   24.0860  -21.0000    0.0000 C   0  0  0  0  0  0  0  0  0  0  0  0
   26.8648  -19.5830    0.0000 F   0  0  0  0  0  0  0  0  0  0  0  0
   25.4648  -18.1830    0.0000 F   0  0  0  0  0  0  0  0  0  0  0  0
   25.4648  -20.9830    0.0000 F   0  0  0  0  0  0  0  0  0  0  0  0
  1  2  2  0     0  0
  2  3  1  0     0  0
  3  4  2  0     0  0
  4  5  1  0     0  0
  5  6  2  0     0  0
  1  6  1  0     0  0
  4  7  1  0     0  0
  7  8  2  0     0  0
  8  9  1  0     0  0
  9 10  2  0     0  0
  5 10  1  0     0  0
  1 11  1  0     0  0
 11 12  1  0     0  0
  2 13  1  0     0  0
 13 14  1  0     0  0
  8 15  1  0     0  0
 15 16  2  0     0  0
 16 17  1  0     0  0
 17 18  2  0     0  0
 18 19  1  0     0  0
 19 20  2  0     0  0
 15 20  1  0     0  0
 18 21  1  0     0  0
 21 22  1  0     0  0
 22 23  1  0     0  0
 22 24  2  0     0  0
 23 25  1  0     0  0
 25 26  2  0     0  0
 26 27  1  0     0  0
 27 28  2  0     0  0
 28 29  1  0     0  0
 25 29  1  0     0  0
 27 30  1  0     0  0
 30 31  1  0     0  0
 30 32  1  0     0  0
 30 33  1  0     0  0
 31 34  1  0     0  0
 31 35  1  0     0  0
 31 36  1  0     0  0
M  END
