 
 
 
 24 23  0  0  0  0  0  0  0  0999 V2000
   26.0261  -17.0009    0.0000 C   0  0  0  0  0  0  0  0  0  0  0  0
   27.2854  -16.3013    0.0000 C   0  0  0  0  0  0  0  0  0  0  0  0
   28.4748  -17.0009    0.0000 C   0  0  0  0  0  0  0  0  0  0  0  0
   29.6641  -16.3013    0.0000 C   0  0  0  0  0  0  0  0  0  0  0  0
   30.9235  -17.0009    0.0000 C   0  0  0  0  0  0  0  0  0  0  0  0
   24.8367  -16.3013    0.0000 C   0  0  0  0  0  0  0  0  0  0  0  0
   20.9888  -16.3013    0.0000 C   0  0  0  0  0  0  0  0  0  0  0  0
   22.2481  -17.0009    0.0000 C   0  0  0  0  0  0  0  0  0  0  0  0
   23.4375  -16.3013    0.0000 C   0  0  0  0  0  0  0  0  0  0  0  0
    6.2966  -17.0009    0.0000 C   0  0  0  0  0  0  0  0  0  0  0  0
    7.4860  -16.3013    0.0000 C   0  0  0  0  0  0  0  0  0  0  0  0
    8.7453  -17.0009    0.0000 O   0  0  0  0  0  0  0  0  0  0  0  0
    9.9347  -16.3013    0.0000 C   0  0  0  0  0  0  0  0  0  0  0  0
   11.1241  -17.0009    0.0000 C   0  0  0  0  0  0  0  0  0  0  0  0
   12.3834  -16.3013    0.0000 C   0  0  0  0  0  0  0  0  0  0  0  0
   13.5727  -17.0009    0.0000 C   0  0  0  0  0  0  0  0  0  0  0  0
   14.7621  -16.3013    0.0000 C   0  0  0  0  0  0  0  0  0  0  0  0
   15.9515  -17.0009    0.0000 C   0  0  0  0  0  0  0  0  0  0  0  0
   17.2108  -16.3013    0.0000 C   0  0  0  0  0  0  0  0  0  0  0  0
   18.4002  -17.0009    0.0000 C   0  0  0  0  0  0  0  0  0  0  0  0
   19.5895  -16.3013    0.0000 C   0  0  0  0  0  0  0  0  0  0  0  0
    9.9347  -14.9020    0.0000 O   0  0  0  0  0  0  0  0  0  0  0  0
   21.5481  -18.2133    0.0000 H   1  0  0  0  0  0  0  0  0  0  0  0
   22.9481  -18.2133    0.0000 H   1  0  0  0  0  0  0  0  0  0  0  0
  2  3  1  0     0  0
 12 13  1  0     0  0
 13 14  1  0     0  0
  7  8  1  0     0  0
 14 15  1  0     0  0
  3  4  1  0     0  0
 15 16  1  0     0  0
  8  9  1  0     0  0
 16 17  1  0     0  0
  1  2  1  0     0  0
 17 18  1  0     0  0
  4  5  1  0     0  0
 18 19  1  0     0  0
 10 11  1  0     0  0
 19 20  1  0     0  0
  6  1  1  0     0  0
 20 21  1  0     0  0
 11 12  1  0     0  0
 13 22  2  0     0  0
 21  7  2  0     0  0
  9  6  2  0     0  0
  8 23  1  0     0  0
  8 24  1  0     0  0
M  ISO  2  23   2  24   2
M  END
