 
 
 
 30 32  0  0  0  0  0  0  0  0999 V2000
    7.4900   -7.6300    0.0000 N   0  0  0  0  0  0  0  0  0  0  0  0
    7.4900   -6.2300    0.0000 C   0  0  0  0  0  0  0  0  0  0  0  0
    8.6800   -5.5300    0.0000 C   0  0  0  0  0  0  0  0  0  0  0  0
    9.9400   -6.2300    0.0000 C   0  0  0  0  0  0  0  0  0  0  0  0
    9.9400   -7.6300    0.0000 C   0  0  0  0  0  0  0  0  0  0  0  0
    8.6800   -8.3300    0.0000 C   0  0  0  0  0  0  0  0  0  0  0  0
   11.1300   -8.3300    0.0000 C   0  0  0  0  0  0  0  0  0  0  0  0
   12.3200   -7.6300    0.0000 O   0  0  0  0  0  0  0  0  0  0  0  0
   11.1300   -9.7300    0.0000 O   0  0  0  0  0  0  0  0  0  0  0  0
   13.5100   -8.3300    0.0000 C   0  0  0  0  0  0  0  0  0  0  0  0
   14.7000   -7.6300    0.0000 C   0  0  0  0  0  0  0  0  0  0  0  0
   15.8900   -8.3300    0.0000 N   0  0  0  0  0  0  0  0  0  0  0  0
   17.0800   -7.6300    0.0000 C   0  0  0  0  0  0  0  0  0  0  0  0
   18.3400   -8.3300    0.0000 C   0  0  0  0  0  0  0  0  0  0  0  0
   18.3400   -9.7300    0.0000 N   0  0  0  0  0  0  0  0  0  0  0  0
   17.1500  -10.4300    0.0000 C   0  0  0  0  0  0  0  0  0  0  0  0
   15.8900   -9.7300    0.0000 C   0  0  0  0  0  0  0  0  0  0  0  0
   19.5300  -10.4300    0.0000 C   0  0  0  0  0  0  0  0  0  0  0  0
   20.7200   -9.7300    0.0000 C   0  0  0  0  0  0  0  0  0  0  0  0
   20.7200   -8.3300    0.0000 C   0  0  0  0  0  0  0  0  0  0  0  0
   21.9800   -7.6300    0.0000 C   0  0  0  0  0  0  0  0  0  0  0  0
   23.1700   -8.3300    0.0000 C   0  0  0  0  0  0  0  0  0  0  0  0
   23.1700   -9.7300    0.0000 C   0  0  0  0  0  0  0  0  0  0  0  0
   21.9800  -10.4300    0.0000 C   0  0  0  0  0  0  0  0  0  0  0  0
   21.9800  -11.8300    0.0000 O   0  0  0  0  0  0  0  0  0  0  0  0
   24.3600  -10.4300    0.0000 O   0  0  0  0  0  0  0  0  0  0  0  0
   25.5500   -9.7300    0.0000 C   0  0  0  0  0  0  0  0  0  0  0  0
   24.3600   -7.6300    0.0000 O   0  0  0  0  0  0  0  0  0  0  0  0
   25.5500   -8.3300    0.0000 C   0  0  0  0  0  0  0  0  0  0  0  0
   23.1700  -12.5300    0.0000 C   0  0  0  0  0  0  0  0  0  0  0  0
  1  2  2  0     0  0
  2  3  1  0     0  0
  3  4  2  0     0  0
  4  5  1  0     0  0
  5  6  2  0     0  0
  1  6  1  0     0  0
  5  7  1  0     0  0
  7  8  1  0     0  0
  7  9  2  0     0  0
  8 10  1  0     0  0
 10 11  1  0     0  0
 11 12  1  0     0  0
 12 13  1  0     0  0
 13 14  1  0     0  0
 14 15  1  0     0  0
 15 16  1  0     0  0
 16 17  1  0     0  0
 12 17  1  0     0  0
 15 18  1  0     0  0
 18 19  1  0     0  0
 19 20  2  0     0  0
 20 21  1  0     0  0
 21 22  2  0     0  0
 22 23  1  0     0  0
 23 24  2  0     0  0
 19 24  1  0     0  0
 24 25  1  0     0  0
 23 26  1  0     0  0
 26 27  1  0     0  0
 22 28  1  0     0  0
 28 29  1  0     0  0
 25 30  1  0     0  0
M  END
