 
 
 
 40 43  0  0  1  0  0  0  0  0999 V2000
   25.8960  -15.6352    0.0000 C   0  0  0  0  0  0  0  0  0  0  0  0
   25.8960  -14.2392    0.0000 N   0  0  0  0  0  0  0  0  0  0  0  0
   24.7094  -13.5412    0.0000 C   0  0  0  0  0  0  0  0  0  0  0  0
   23.4530  -14.2392    0.0000 C   0  0  0  0  0  0  0  0  0  0  0  0
   23.4530  -15.6352    0.0000 C   0  0  0  0  0  0  0  0  0  0  0  0
   24.7094  -16.3332    0.0000 C   0  0  0  0  0  0  0  0  0  0  0  0
   27.0826  -16.3332    0.0000 N   0  0  0  0  0  0  0  0  0  0  0  0
   27.0826  -17.7292    0.0000 C   0  0  0  0  0  0  0  0  0  0  0  0
   28.3390  -18.2178    0.0000 C   0  0  0  0  0  0  0  0  0  0  0  0
   29.2464  -17.1010    0.0000 C   0  0  0  0  0  0  0  0  0  0  0  0
   28.4088  -15.9842    0.0000 N   0  0  0  0  0  0  0  0  0  0  0  0
   28.7578  -19.5440    0.0000 F   0  0  0  0  0  0  0  0  0  0  0  0
   22.2664  -13.5412    0.0000 C   0  0  0  0  0  0  0  0  0  0  0  0
   21.0798  -14.2392    0.0000 N   0  0  0  0  0  0  0  0  0  0  0  0
   22.2664  -12.0754    0.0000 C   0  0  0  0  0  0  0  0  0  0  0  0
   19.8932  -13.5412    0.0000 C   0  0  0  0  0  0  0  0  0  0  0  0
   18.7066  -14.2392    0.0000 C   0  0  0  0  0  0  0  0  0  0  0  0
   19.8932  -12.0754    0.0000 O   0  0  0  0  0  0  0  0  0  0  0  0
   17.5200  -13.5412    0.0000 C   0  0  0  0  0  0  0  0  0  0  0  0
   16.2636  -14.2392    0.0000 C   0  0  0  0  0  0  0  0  0  0  0  0
   16.2636  -15.6352    0.0000 C   0  0  0  0  0  0  0  0  0  0  0  0
   17.4502  -16.3332    0.0000 C   0  0  0  0  0  0  0  0  0  0  0  0
   18.7066  -15.6352    0.0000 C   0  0  0  0  0  0  0  0  0  0  0  0
   18.7066  -12.7734    0.0000 O   0  0  0  0  0  0  0  0  0  0  0  0
   17.5200  -12.0754    0.0000 C   0  0  0  0  0  0  0  0  0  0  0  0
   15.0770  -16.3332    0.0000 C   0  0  0  0  0  0  0  0  0  0  0  0
   13.8206  -15.6352    0.0000 N   0  0  0  0  0  0  0  0  0  0  0  0
   12.5642  -16.3332    0.0000 C   0  0  0  0  0  0  0  0  0  0  0  0
   12.5642  -17.7292    0.0000 C   0  0  0  0  0  0  0  0  0  0  0  0
   13.7508  -18.4272    0.0000 C   0  0  0  0  0  0  0  0  0  0  0  0
   15.0770  -17.7292    0.0000 N   0  0  0  0  0  0  0  0  0  0  0  0
   13.7508  -19.8232    0.0000 C   0  0  0  0  0  0  0  0  0  0  0  0
   11.3776  -15.6352    0.0000 N   0  0  0  0  0  0  0  0  0  0  0  0
   10.1910  -16.3332    0.0000 C   0  0  0  0  0  0  0  0  0  0  0  0
    8.8648  -15.9144    0.0000 N   0  0  0  0  0  0  0  0  0  0  0  0
    8.0272  -17.0312    0.0000 N   0  0  0  0  0  0  0  0  0  0  0  0
    8.8648  -18.1480    0.0000 C   0  0  0  0  0  0  0  0  0  0  0  0
   10.1910  -17.7292    0.0000 C   0  0  0  0  0  0  0  0  0  0  0  0
    8.4460  -19.4044    0.0000 C   0  0  0  0  0  0  0  0  0  0  0  0
   21.8400  -19.8100    0.0000 O   0  0  0  0  0  0  0  0  0  0  0  0
  1  2  2  0     0  0
  2  3  1  0     0  0
  3  4  2  0     0  0
  4  5  1  0     0  0
  5  6  2  0     0  0
  1  6  1  0     0  0
  1  7  1  0     0  0
  7  8  1  0     0  0
  8  9  2  0     0  0
  9 10  1  0     0  0
 10 11  2  0     0  0
  7 11  1  0     0  0
  9 12  1  0     0  0
  4 13  1  0     0  0
 13 14  1  0     0  0
 13 15  1  1     0  0
 14 16  1  0     0  0
 16 17  1  0     0  0
 16 18  2  0     0  0
 17 19  1  0     0  0
 19 20  1  0     0  0
 20 21  1  0     0  0
 21 22  1  0     0  0
 22 23  1  0     0  0
 17 23  1  0     0  0
 17 24  1  6     0  0
 24 25  1  0     0  0
 21 26  1  6     0  0
 26 27  2  0     0  0
 27 28  1  0     0  0
 28 29  2  0     0  0
 29 30  1  0     0  0
 30 31  2  0     0  0
 26 31  1  0     0  0
 30 32  1  0     0  0
 28 33  1  0     0  0
 33 34  1  0     0  0
 34 35  2  0     0  0
 35 36  1  0     0  0
 36 37  1  0     0  0
 37 38  2  0     0  0
 34 38  1  0     0  0
 37 39  1  0     0  0
M  END
