 
 
 
 29 29  0  0  1  0  0  0  0  0999 V2000
   16.8849  -17.2360    0.0000 N   0  0  3  0  0  0  0  0  0  0  0  0
   18.0776  -16.6046    0.0000 C   0  0  0  0  0  0  0  0  0  0  0  0
   12.0440  -17.2360    0.0000 C   0  0  0  0  0  0  0  0  0  0  0  0
   12.0440  -18.6392    0.0000 C   0  0  0  0  0  0  0  0  0  0  0  0
   13.2367  -19.3408    0.0000 N   0  0  0  0  0  0  0  0  0  0  0  0
   14.4995  -18.6392    0.0000 C   0  0  0  0  0  0  0  0  0  0  0  0
   14.4995  -17.2360    0.0000 C   0  0  0  0  0  0  0  0  0  0  0  0
   13.2367  -16.6046    0.0000 N   0  0  0  0  0  0  0  0  0  0  0  0
   15.6922  -16.6046    0.0000 C   0  0  0  0  0  0  0  0  0  0  0  0
   15.6922  -15.2014    0.0000 O   0  0  0  0  0  0  0  0  0  0  0  0
   19.2703  -17.3062    0.0000 C   0  0  0  0  0  0  0  0  0  0  0  0
   20.4630  -16.6046    0.0000 N   0  0  0  0  0  0  0  0  0  0  0  0
   21.6557  -17.3062    0.0000 C   0  0  0  0  0  0  0  0  0  0  0  0
   22.8484  -16.6046    0.0000 C   0  0  0  0  0  0  0  0  0  0  0  0
   24.0411  -17.3062    0.0000 C   0  0  0  0  0  0  0  0  0  0  0  0
   25.2338  -16.6046    0.0000 C   0  0  0  0  0  0  0  0  0  0  0  0
   24.0411  -18.6392    0.0000 C   0  0  0  0  0  0  0  0  0  0  0  0
   19.2703  -18.6392    0.0000 O   0  0  0  0  0  0  0  0  0  0  0  0
   18.0776  -15.2014    0.0000 C   0  0  0  0  0  0  0  0  0  0  0  0
   19.3405  -14.4999    0.0000 C   0  0  0  0  0  0  0  0  0  0  0  0
   20.4630  -15.2014    0.0000 C   0  0  0  0  0  0  0  0  0  0  0  0
   21.7259  -14.4999    0.0000 C   0  0  0  0  0  0  0  0  0  0  0  0
   21.7259  -13.0967    0.0000 C   0  0  0  0  0  0  0  0  0  0  0  0
   20.5332  -12.4652    0.0000 C   0  0  0  0  0  0  0  0  0  0  0  0
   19.3405  -13.0967    0.0000 C   0  0  0  0  0  0  0  0  0  0  0  0
   21.6557  -19.2005    0.0000 B   0  0  0  0  0  0  0  0  0  0  0  0
   20.4630  -19.9021    0.0000 O   0  0  0  0  0  0  0  0  0  0  0  0
   22.8484  -19.9021    0.0000 O   0  0  0  0  0  0  0  0  0  0  0  0
   28.4200  -18.6900    0.0000 O   0  0  0  0  0  0  0  0  0  0  0  0
  3  4  2  0     0  0
  4  5  1  0     0  0
  5  6  2  0     0  0
  6  7  1  0     0  0
  7  8  2  0     0  0
  8  3  1  0     0  0
  7  9  1  0     0  0
  9  1  1  0     0  0
  2  1  1  0     0  0
  9 10  2  0     0  0
  2 11  1  0     0  0
 11 12  1  0     0  0
 12 13  1  0     0  0
 13 14  1  0     0  0
 14 15  1  0     0  0
 15 16  1  0     0  0
 15 17  1  0     0  0
 11 18  2  0     0  0
 19 20  1  0     0  0
 20 21  2  0     0  0
 21 22  1  0     0  0
 22 23  2  0     0  0
 23 24  1  0     0  0
 24 25  2  0     0  0
 20 25  1  0     0  0
  2 19  1  1     0  0
 26 27  1  0     0  0
 26 28  1  0     0  0
 13 26  1  1     0  0
M  END
