 
 
 
 35 37  0  0  0  0  0  0  0  0999 V2000
   19.3900  -28.9100    0.0000 C   0  0  0  0  0  0  0  0  0  0  0  0
   19.3900  -30.3100    0.0000 C   0  0  0  0  0  0  0  0  0  0  0  0
   18.2000  -31.0100    0.0000 C   0  0  0  0  0  0  0  0  0  0  0  0
   16.9400  -30.3100    0.0000 C   0  0  0  0  0  0  0  0  0  0  0  0
   16.9400  -28.9100    0.0000 C   0  0  0  0  0  0  0  0  0  0  0  0
   18.2000  -28.2100    0.0000 C   0  0  0  0  0  0  0  0  0  0  0  0
   20.5800  -28.2100    0.0000 C   0  0  0  0  0  0  0  0  0  0  0  0
   20.5800  -31.0100    0.0000 C   0  0  0  0  0  0  0  0  0  0  0  0
   21.7700  -31.7100    0.0000 N   0  0  0  0  0  0  0  0  0  0  0  0
   21.7700  -27.5100    0.0000 F   0  0  0  0  0  0  0  0  0  0  0  0
   21.2800  -29.4000    0.0000 F   0  0  0  0  0  0  0  0  0  0  0  0
   19.8800  -27.0200    0.0000 F   0  0  0  0  0  0  0  0  0  0  0  0
   15.7500  -28.2100    0.0000 N   0  0  0  0  0  0  0  0  0  0  0  0
   14.5600  -28.9800    0.0000 C   0  0  0  0  0  0  0  0  0  0  0  0
   13.4400  -28.0700    0.0000 C   0  0  0  0  0  0  0  0  0  0  0  0
   13.9300  -26.8100    0.0000 N   0  0  0  0  0  0  0  0  0  0  0  0
   15.3300  -26.8100    0.0000 C   0  0  0  0  0  0  0  0  0  0  0  0
   16.2400  -25.7600    0.0000 S   0  0  0  0  0  0  0  0  0  0  0  0
   14.4200  -30.3100    0.0000 O   0  0  0  0  0  0  0  0  0  0  0  0
   12.1100  -28.4900    0.0000 C   0  0  0  0  0  0  0  0  0  0  0  0
   13.1600  -29.4700    0.0000 C   0  0  0  0  0  0  0  0  0  0  0  0
   13.1396  -25.6545    0.0000 C   0  0  0  0  0  0  0  0  0  0  0  0
   13.8948  -24.4283    0.0000 C   0  0  0  0  0  0  0  0  0  0  0  0
   13.2333  -23.1945    0.0000 C   0  0  0  0  0  0  0  0  0  0  0  0
   11.8340  -23.1504    0.0000 C   0  0  0  0  0  0  0  0  0  0  0  0
   11.0752  -24.3742    0.0000 C   0  0  0  0  0  0  0  0  0  0  0  0
   11.7367  -25.6080    0.0000 C   0  0  0  0  0  0  0  0  0  0  0  0
   13.9813  -21.9887    0.0000 F   0  0  0  0  0  0  0  0  0  0  0  0
   11.1797  -21.9302    0.0000 C   0  0  0  0  0  0  0  0  0  0  0  0
    9.8002  -21.8866    0.0000 N   0  0  0  0  0  0  0  0  0  0  0  0
   11.9321  -20.7167    0.0000 O   0  0  0  0  0  0  0  0  0  0  0  0
    9.1485  -20.6708    0.0000 C   0  0  0  0  0  0  0  0  0  0  0  0
   10.3609  -19.9708    0.0000 H   1  0  0  0  0  0  0  0  0  0  0  0
    7.9360  -21.3708    0.0000 H   1  0  0  0  0  0  0  0  0  0  0  0
    8.4485  -19.4584    0.0000 H   1  0  0  0  0  0  0  0  0  0  0  0
  1  2  2  0     0  0
  2  3  1  0     0  0
  3  4  2  0     0  0
  4  5  1  0     0  0
  5  6  2  0     0  0
  1  6  1  0     0  0
  1  7  1  0     0  0
  2  8  1  0     0  0
  8  9  3  0     0  0
  7 10  1  0     0  0
  7 11  1  0     0  0
  7 12  1  0     0  0
  5 13  1  0     0  0
 13 14  1  0     0  0
 14 15  1  0     0  0
 15 16  1  0     0  0
 16 17  1  0     0  0
 13 17  1  0     0  0
 17 18  2  0     0  0
 14 19  2  0     0  0
 15 20  1  0     0  0
 15 21  1  0     0  0
 16 22  1  0     0  0
 22 23  2  0     0  0
 23 24  1  0     0  0
 24 25  2  0     0  0
 25 26  1  0     0  0
 26 27  2  0     0  0
 22 27  1  0     0  0
 24 28  1  0     0  0
 25 29  1  0     0  0
 29 30  1  0     0  0
 29 31  2  0     0  0
 30 32  1  0     0  0
 32 33  1  0     0  0
 32 34  1  0     0  0
 32 35  1  0     0  0
M  ISO  3  33   2  34   2  35   2
M  END
