 
 
 
 38 42  0  0  0  0  0  0  0  0999 V2000
    9.5200  -13.9300    0.0000 C   0  0  0  0  0  0  0  0  0  0  0  0
    9.5200  -15.3300    0.0000 N   0  0  0  0  0  0  0  0  0  0  0  0
   10.7324  -16.0300    0.0000 C   0  0  0  0  0  0  0  0  0  0  0  0
   11.9449  -15.3300    0.0000 C   0  0  0  0  0  0  0  0  0  0  0  0
   11.9449  -13.9300    0.0000 C   0  0  0  0  0  0  0  0  0  0  0  0
   10.7324  -13.2300    0.0000 N   0  0  0  0  0  0  0  0  0  0  0  0
   13.2764  -15.7626    0.0000 C   0  0  0  0  0  0  0  0  0  0  0  0
   14.0993  -14.6300    0.0000 C   0  0  0  0  0  0  0  0  0  0  0  0
   13.2764  -13.4974    0.0000 N   0  0  0  0  0  0  0  0  0  0  0  0
   15.4700  -14.6300    0.0000 C   0  0  0  0  0  0  0  0  0  0  0  0
   16.1700  -15.8424    0.0000 C   0  0  0  0  0  0  0  0  0  0  0  0
   17.5700  -15.8424    0.0000 C   0  0  0  0  0  0  0  0  0  0  0  0
   18.2700  -14.6300    0.0000 C   0  0  0  0  0  0  0  0  0  0  0  0
   17.5700  -13.4176    0.0000 C   0  0  0  0  0  0  0  0  0  0  0  0
   16.1700  -13.4176    0.0000 C   0  0  0  0  0  0  0  0  0  0  0  0
   19.6700  -14.6300    0.0000 N   0  0  0  0  0  0  0  0  0  0  0  0
   20.3700  -15.8424    0.0000 C   0  0  0  0  0  0  0  0  0  0  0  0
   21.7698  -15.8424    0.0000 C   0  0  0  0  0  0  0  0  0  0  0  0
   19.6796  -17.0379    0.0000 O   0  0  0  0  0  0  0  0  0  0  0  0
   22.4603  -17.0380    0.0000 C   0  0  0  0  0  0  0  0  0  0  0  0
   22.4796  -14.6132    0.0000 C   0  0  0  0  0  0  0  0  0  0  0  0
   13.7075  -17.0894    0.0000 C   0  0  0  0  0  0  0  0  0  0  0  0
   12.7811  -18.1185    0.0000 C   0  0  0  0  0  0  0  0  0  0  0  0
   13.2138  -19.4499    0.0000 C   0  0  0  0  0  0  0  0  0  0  0  0
   14.5833  -19.7409    0.0000 C   0  0  0  0  0  0  0  0  0  0  0  0
   15.5097  -18.7118    0.0000 C   0  0  0  0  0  0  0  0  0  0  0  0
   15.0770  -17.3803    0.0000 C   0  0  0  0  0  0  0  0  0  0  0  0
   16.9033  -19.0084    0.0000 F   0  0  0  0  0  0  0  0  0  0  0  0
   15.0134  -21.0646    0.0000 O   0  0  0  0  0  0  0  0  0  0  0  0
   16.3518  -21.3493    0.0000 C   0  0  0  0  0  0  0  0  0  0  0  0
   16.7868  -22.6896    0.0000 N   0  0  0  0  0  0  0  0  0  0  0  0
   18.1562  -22.9811    0.0000 C   0  0  0  0  0  0  0  0  0  0  0  0
   19.0933  -21.9410    0.0000 C   0  0  0  0  0  0  0  0  0  0  0  0
   18.6583  -20.6008    0.0000 C   0  0  0  0  0  0  0  0  0  0  0  0
   17.2890  -20.3092    0.0000 N   0  0  0  0  0  0  0  0  0  0  0  0
   18.5793  -24.2860    0.0000 C   0  0  0  0  0  0  0  0  0  0  0  0
   10.7324  -17.4298    0.0000 N   0  0  0  0  0  0  0  0  0  0  0  0
   13.7075  -12.1706    0.0000 C   0  0  0  0  0  0  0  0  0  0  0  0
  1  2  2  0     0  0
  2  3  1  0     0  0
  3  4  2  0     0  0
  4  5  1  0     0  0
  5  6  2  0     0  0
  1  6  1  0     0  0
  4  7  1  0     0  0
  7  8  2  0     0  0
  8  9  1  0     0  0
  5  9  1  0     0  0
  8 10  1  0     0  0
 10 11  2  0     0  0
 11 12  1  0     0  0
 12 13  2  0     0  0
 13 14  1  0     0  0
 14 15  2  0     0  0
 10 15  1  0     0  0
 13 16  1  0     0  0
 16 17  1  0     0  0
 17 18  1  0     0  0
 17 19  2  0     0  0
 18 20  1  0     0  0
 18 21  2  0     0  0
  7 22  1  0     0  0
 22 23  2  0     0  0
 23 24  1  0     0  0
 24 25  2  0     0  0
 25 26  1  0     0  0
 26 27  2  0     0  0
 22 27  1  0     0  0
 26 28  1  0     0  0
 25 29  1  0     0  0
 29 30  1  0     0  0
 30 31  2  0     0  0
 31 32  1  0     0  0
 32 33  2  0     0  0
 33 34  1  0     0  0
 34 35  2  0     0  0
 30 35  1  0     0  0
 32 36  1  0     0  0
  3 37  1  0     0  0
  9 38  1  0     0  0
M  END
