 
 
 
110115  0  0  0  0  0  0  0  0999 V2000
   13.7462  -18.8041    0.0000 N   0  0  0  0  0  0  0  0  0  0  0  0
   13.7462  -17.3307    0.0000 C   0  0  0  0  0  0  0  0  0  0  0  0
   15.0091  -16.6290    0.0000 C   0  0  0  0  0  0  0  0  0  0  0  0
   16.2019  -17.3307    0.0000 C   0  0  0  0  0  0  0  0  0  0  0  0
   16.2019  -18.8041    0.0000 C   0  0  0  0  0  0  0  0  0  0  0  0
   15.0091  -19.5057    0.0000 C   0  0  0  0  0  0  0  0  0  0  0  0
   12.5534  -19.5057    0.0000 C   0  0  0  0  0  0  0  0  0  0  0  0
   11.3606  -18.8041    0.0000 C   0  0  0  0  0  0  0  0  0  0  0  0
   17.3947  -16.6290    0.0000 C   0  0  0  0  0  0  0  0  0  0  0  0
   17.3947  -15.2258    0.0000 C   0  0  0  0  0  0  0  0  0  0  0  0
   18.5875  -14.5241    0.0000 C   0  0  0  0  0  0  0  0  0  0  0  0
   19.7803  -15.2258    0.0000 C   0  0  0  0  0  0  0  0  0  0  0  0
   19.7803  -16.6290    0.0000 C   0  0  0  0  0  0  0  0  0  0  0  0
   18.5875  -17.3307    0.0000 C   0  0  0  0  0  0  0  0  0  0  0  0
   21.0432  -14.5241    0.0000 C   0  0  0  0  0  0  0  0  0  0  0  0
   10.0977  -19.5057    0.0000 O   0  0  0  0  0  0  0  0  0  0  0  0
   21.1134  -13.1910    0.0000 O   0  0  0  0  0  0  0  0  0  0  0  0
   22.3062  -15.2959    0.0000 N   0  0  0  0  0  0  0  0  0  0  0  0
   22.3062  -16.6992    0.0000 C   0  0  0  0  0  0  0  0  0  0  0  0
   21.0432  -17.4008    0.0000 N   0  0  0  0  0  0  0  0  0  0  0  0
   21.0432  -18.8041    0.0000 C   0  0  0  0  0  0  0  0  0  0  0  0
   22.3062  -19.5057    0.0000 C   0  0  0  0  0  0  0  0  0  0  0  0
   23.4990  -18.8041    0.0000 C   0  0  0  0  0  0  0  0  0  0  0  0
   23.4990  -17.4008    0.0000 C   0  0  0  0  0  0  0  0  0  0  0  0
   24.6918  -19.4356    0.0000 O   0  0  0  0  0  0  0  0  0  0  0  0
   25.8846  -18.7339    0.0000 C   0  0  0  0  0  0  0  0  0  0  0  0
   27.0774  -19.4356    0.0000 C   0  0  0  0  0  0  0  0  0  0  0  0
   28.2702  -18.7339    0.0000 C   0  0  0  0  0  0  0  0  0  0  0  0
   28.2702  -17.3307    0.0000 C   0  0  0  0  0  0  0  0  0  0  0  0
   27.0774  -16.6992    0.0000 C   0  0  0  0  0  0  0  0  0  0  0  0
   25.8846  -17.4008    0.0000 C   0  0  0  0  0  0  0  0  0  0  0  0
   24.6217  -16.6290    0.0000 O   0  0  0  0  0  0  0  0  0  0  0  0
   24.6217  -15.2258    0.0000 C   0  0  0  0  0  0  0  0  0  0  0  0
   25.8144  -14.5241    0.0000 C   0  0  0  0  0  0  0  0  0  0  0  0
   29.6033  -19.1549    0.0000 C   0  0  0  0  0  0  0  0  0  0  0  0
   30.4452  -18.0323    0.0000 C   0  0  0  0  0  0  0  0  0  0  0  0
   29.6033  -16.9097    0.0000 N   0  0  0  0  0  0  0  0  0  0  0  0
   30.0242  -15.5766    0.0000 C   0  0  0  0  0  0  0  0  0  0  0  0
   31.4275  -15.2959    0.0000 N   0  0  0  0  0  0  0  0  0  0  0  0
   29.1121  -14.5943    0.0000 O   0  0  0  0  0  0  0  0  0  0  0  0
   32.3396  -16.3484    0.0000 C   0  0  0  0  0  0  0  0  0  0  0  0
   25.8144  -13.1208    0.0000 O   0  0  0  0  0  0  0  0  0  0  0  0
   27.0072  -12.4192    0.0000 C   0  0  0  0  0  0  0  0  0  0  0  0
   39.1608  -16.8154    0.0000 C   0  0  0  0  0  0  0  0  0  0  0  0
   40.3743  -17.5160    0.0000 C   0  0  0  0  0  0  0  0  0  0  0  0
   37.9473  -17.5160    0.0000 O   0  0  0  0  0  0  0  0  0  0  0  0
   39.1608  -15.4141    0.0000 O   0  0  0  0  0  0  0  0  0  0  0  0
   41.5709  -16.8250    0.0000 C   0  0  0  0  0  0  0  0  0  0  0  0
   42.7594  -17.5111    0.0000 C   0  0  0  0  0  0  0  0  0  0  0  0
   43.9517  -16.8225    0.0000 O   0  0  0  0  0  0  0  0  0  0  0  0
   42.7596  -18.9171    0.0000 O   0  0  0  0  0  0  0  0  0  0  0  0
   13.7462  -18.8041    0.0000 N   0  0  0  0  0  0  0  0  0  0  0  0
   13.7462  -17.3307    0.0000 C   0  0  0  0  0  0  0  0  0  0  0  0
   15.0091  -16.6290    0.0000 C   0  0  0  0  0  0  0  0  0  0  0  0
   16.2019  -17.3307    0.0000 C   0  0  0  0  0  0  0  0  0  0  0  0
   16.2019  -18.8041    0.0000 C   0  0  0  0  0  0  0  0  0  0  0  0
   15.0091  -19.5057    0.0000 C   0  0  0  0  0  0  0  0  0  0  0  0
   17.3947  -16.6290    0.0000 C   0  0  0  0  0  0  0  0  0  0  0  0
   17.3947  -15.2258    0.0000 C   0  0  0  0  0  0  0  0  0  0  0  0
   18.5875  -14.5241    0.0000 C   0  0  0  0  0  0  0  0  0  0  0  0
   19.7803  -15.2258    0.0000 C   0  0  0  0  0  0  0  0  0  0  0  0
   19.7803  -16.6290    0.0000 C   0  0  0  0  0  0  0  0  0  0  0  0
   18.5875  -17.3307    0.0000 C   0  0  0  0  0  0  0  0  0  0  0  0
   21.0432  -14.5241    0.0000 C   0  0  0  0  0  0  0  0  0  0  0  0
   21.1134  -13.1910    0.0000 O   0  0  0  0  0  0  0  0  0  0  0  0
   22.3062  -15.2959    0.0000 N   0  0  0  0  0  0  0  0  0  0  0  0
   22.3062  -16.6992    0.0000 C   0  0  0  0  0  0  0  0  0  0  0  0
   21.0432  -17.4008    0.0000 N   0  0  0  0  0  0  0  0  0  0  0  0
   21.0432  -18.8041    0.0000 C   0  0  0  0  0  0  0  0  0  0  0  0
   22.3062  -19.5057    0.0000 C   0  0  0  0  0  0  0  0  0  0  0  0
   23.4990  -18.8041    0.0000 C   0  0  0  0  0  0  0  0  0  0  0  0
   23.4990  -17.4008    0.0000 C   0  0  0  0  0  0  0  0  0  0  0  0
   24.6918  -19.4356    0.0000 O   0  0  0  0  0  0  0  0  0  0  0  0
   25.8846  -18.7339    0.0000 C   0  0  0  0  0  0  0  0  0  0  0  0
   27.0774  -19.4356    0.0000 C   0  0  0  0  0  0  0  0  0  0  0  0
   28.2702  -18.7339    0.0000 C   0  0  0  0  0  0  0  0  0  0  0  0
   28.2702  -17.3307    0.0000 C   0  0  0  0  0  0  0  0  0  0  0  0
   27.0774  -16.6992    0.0000 C   0  0  0  0  0  0  0  0  0  0  0  0
   25.8846  -17.4008    0.0000 C   0  0  0  0  0  0  0  0  0  0  0  0
   24.6217  -16.6290    0.0000 O   0  0  0  0  0  0  0  0  0  0  0  0
   24.6217  -15.2258    0.0000 C   0  0  0  0  0  0  0  0  0  0  0  0
   25.8144  -14.5241    0.0000 C   0  0  0  0  0  0  0  0  0  0  0  0
   25.8144  -13.1208    0.0000 O   0  0  0  0  0  0  0  0  0  0  0  0
   27.0072  -12.4192    0.0000 C   0  0  0  0  0  0  0  0  0  0  0  0
   29.6033  -16.9097    0.0000 N   0  0  0  0  0  0  0  0  0  0  0  0
   30.4452  -18.0323    0.0000 C   0  0  0  0  0  0  0  0  0  0  0  0
   29.6033  -19.1549    0.0000 C   0  0  0  0  0  0  0  0  0  0  0  0
   30.0242  -15.5766    0.0000 C   0  0  0  0  0  0  0  0  0  0  0  0
   31.4275  -15.2959    0.0000 N   0  0  0  0  0  0  0  0  0  0  0  0
   32.3396  -16.3484    0.0000 C   0  0  0  0  0  0  0  0  0  0  0  0
   29.1121  -14.5943    0.0000 O   0  0  0  0  0  0  0  0  0  0  0  0
   12.5534  -19.5057    0.0000 C   0  0  0  0  0  0  0  0  0  0  0  0
   11.3606  -18.8041    0.0000 C   0  0  0  0  0  0  0  0  0  0  0  0
   10.0977  -19.5057    0.0000 O   0  0  0  0  0  0  0  0  0  0  0  0
   39.1608  -16.8154    0.0000 C   0  0  0  0  0  0  0  0  0  0  0  0
   40.3743  -17.5160    0.0000 C   0  0  0  0  0  0  0  0  0  0  0  0
   41.5709  -16.8250    0.0000 C   0  0  0  0  0  0  0  0  0  0  0  0
   42.7594  -17.5111    0.0000 C   0  0  0  0  0  0  0  0  0  0  0  0
   43.9517  -16.8225    0.0000 O   0  0  0  0  0  0  0  0  0  0  0  0
   42.7596  -18.9171    0.0000 O   0  0  0  0  0  0  0  0  0  0  0  0
   37.9473  -17.5160    0.0000 O   0  0  0  0  0  0  0  0  0  0  0  0
   39.1608  -15.4141    0.0000 O   0  0  0  0  0  0  0  0  0  0  0  0
   39.1608  -16.8154    0.0000 C   0  0  0  0  0  0  0  0  0  0  0  0
   40.3743  -17.5160    0.0000 C   0  0  0  0  0  0  0  0  0  0  0  0
   41.5709  -16.8250    0.0000 C   0  0  0  0  0  0  0  0  0  0  0  0
   42.7594  -17.5111    0.0000 C   0  0  0  0  0  0  0  0  0  0  0  0
   43.9517  -16.8225    0.0000 O   0  0  0  0  0  0  0  0  0  0  0  0
   42.7596  -18.9171    0.0000 O   0  0  0  0  0  0  0  0  0  0  0  0
   37.9473  -17.5160    0.0000 O   0  0  0  0  0  0  0  0  0  0  0  0
   39.1608  -15.4141    0.0000 O   0  0  0  0  0  0  0  0  0  0  0  0
  1  2  1  0     0  0
  2  3  1  0     0  0
  3  4  1  0     0  0
  4  5  1  0     0  0
  5  6  1  0     0  0
  1  6  1  0     0  0
  1  7  1  0     0  0
  7  8  1  0     0  0
  4  9  1  0     0  0
  9 10  2  0     0  0
 10 11  1  0     0  0
 11 12  2  0     0  0
 12 13  1  0     0  0
 13 14  2  0     0  0
  9 14  1  0     0  0
 12 15  1  0     0  0
  8 16  1  0     0  0
 15 17  2  0     0  0
 15 18  1  0     0  0
 18 19  1  0     0  0
 19 20  2  0     0  0
 20 21  1  0     0  0
 21 22  2  0     0  0
 22 23  1  0     0  0
 23 24  2  0     0  0
 19 24  1  0     0  0
 23 25  1  0     0  0
 25 26  1  0     0  0
 26 27  2  0     0  0
 27 28  1  0     0  0
 28 29  2  0     0  0
 29 30  1  0     0  0
 30 31  2  0     0  0
 26 31  1  0     0  0
 31 32  1  0     0  0
 32 33  1  0     0  0
 33 34  1  0     0  0
 28 35  1  0     0  0
 35 36  2  0     0  0
 36 37  1  0     0  0
 29 37  1  0     0  0
 37 38  1  0     0  0
 38 39  1  0     0  0
 38 40  2  0     0  0
 39 41  1  0     0  0
 34 42  1  0     0  0
 42 43  1  0     0  0
 52 53  1  0     0  0
 53 54  1  0     0  0
 54 55  1  0     0  0
 55 56  1  0     0  0
 56 57  1  0     0  0
 52 57  1  0     0  0
 52 92  1  0     0  0
 92 93  1  0     0  0
 55 58  1  0     0  0
 58 59  2  0     0  0
 59 60  1  0     0  0
 60 61  2  0     0  0
 61 62  1  0     0  0
 62 63  2  0     0  0
 58 63  1  0     0  0
 61 64  1  0     0  0
 93 94  1  0     0  0
 64 65  2  0     0  0
 64 66  1  0     0  0
 66 67  1  0     0  0
 67 68  2  0     0  0
 68 69  1  0     0  0
 69 70  2  0     0  0
 70 71  1  0     0  0
 71 72  2  0     0  0
 67 72  1  0     0  0
 71 73  1  0     0  0
 73 74  1  0     0  0
 74 75  2  0     0  0
 75 76  1  0     0  0
 76 77  2  0     0  0
 77 78  1  0     0  0
 78 79  2  0     0  0
 74 79  1  0     0  0
 79 80  1  0     0  0
 80 81  1  0     0  0
 81 82  1  0     0  0
 76 87  1  0     0  0
 87 86  2  0     0  0
 86 85  1  0     0  0
 77 85  1  0     0  0
 85 88  1  0     0  0
 88 89  1  0     0  0
 88 91  2  0     0  0
 89 90  1  0     0  0
 82 83  1  0     0  0
 83 84  1  0     0  0
 44 45  1  0     0  0
 44 46  1  0     0  0
 44 47  2  0     0  0
 45 48  1  0     0  0
 48 49  1  0     0  0
 49 50  1  0     0  0
 49 51  2  0     0  0
 95 96  1  0     0  0
 95101  1  0     0  0
 95102  2  0     0  0
 96 97  1  0     0  0
 97 98  1  0     0  0
 98 99  1  0     0  0
 98100  2  0     0  0
103104  1  0     0  0
103109  1  0     0  0
103110  2  0     0  0
104105  1  0     0  0
105106  1  0     0  0
106107  1  0     0  0
106108  2  0     0  0
M  STY  2   1 MUL   2 MUL
M  SLB  2   1   1   2   2
M  SCN  2   1 HT    2 HT 
M  SAL   1 15   1   2   3   4   5   6   7   8   9  10  11  12  13  14  15
M  SAL   1 15  16  17  18  19  20  21  22  23  24  25  26  27  28  29  30
M  SAL   1 15  31  32  33  34  35  36  37  38  39  40  41  42  43  52  53
M  SAL   1 15  54  55  56  57  58  59  60  61  62  63  64  65  66  67  68
M  SAL   1 15  69  70  71  72  73  74  75  76  77  78  79  80  81  82  83
M  SAL   1 11  84  85  86  87  88  89  90  91  92  93  94
M  SPA   1 15   1   2   3   4   5   6   9  10  11  12  13  14  15  17  18
M  SPA   1 15  19  20  21  22  23  24  25  26  27  28  29  30  31  32  33
M  SPA   1 13  34  42  43  37  36  35  38  39  41  40   7   8  16
M  SDI   1  4    8.4000  -20.7900    8.4000  -11.4100
M  SDI   1  4   34.3000  -11.4100   34.3000  -20.7900
M  SMT   1 2
M  SAL   2 15  44  45  46  47  48  49  50  51  95  96  97  98  99 100 101
M  SAL   2  9 102 103 104 105 106 107 108 109 110
M  SPA   2  8  44  45  48  49  50  51  46  47
M  SDI   2  4   36.4700  -19.6000   36.4700  -14.2800
M  SDI   2  4   45.2900  -14.2800   45.2900  -19.6000
M  SMT   2 3
M  END
