 
 
 
 43 47  0  0  0  0  0  0  0  0999 V2000
   11.1769  -18.4355    0.0000 N   0  0  0  0  0  0  0  0  0  0  0  0
   11.1769  -16.9690    0.0000 C   0  0  0  0  0  0  0  0  0  0  0  0
   12.4339  -16.2707    0.0000 C   0  0  0  0  0  0  0  0  0  0  0  0
   13.6210  -16.9690    0.0000 C   0  0  0  0  0  0  0  0  0  0  0  0
   13.6210  -18.4355    0.0000 C   0  0  0  0  0  0  0  0  0  0  0  0
   12.4339  -19.1338    0.0000 C   0  0  0  0  0  0  0  0  0  0  0  0
    9.9898  -19.1338    0.0000 C   0  0  0  0  0  0  0  0  0  0  0  0
    8.8026  -18.4355    0.0000 C   0  0  0  0  0  0  0  0  0  0  0  0
   14.8081  -16.2707    0.0000 C   0  0  0  0  0  0  0  0  0  0  0  0
   14.8081  -14.8741    0.0000 C   0  0  0  0  0  0  0  0  0  0  0  0
   16.0651  -14.1758    0.0000 C   0  0  0  0  0  0  0  0  0  0  0  0
   17.2522  -14.8741    0.0000 C   0  0  0  0  0  0  0  0  0  0  0  0
   17.2522  -16.2707    0.0000 C   0  0  0  0  0  0  0  0  0  0  0  0
   16.0651  -16.9690    0.0000 C   0  0  0  0  0  0  0  0  0  0  0  0
   18.5092  -14.1758    0.0000 C   0  0  0  0  0  0  0  0  0  0  0  0
    7.5875  -19.1239    0.0000 O   0  0  0  0  0  0  0  0  0  0  0  0
   18.5263  -12.7792    0.0000 O   0  0  0  0  0  0  0  0  0  0  0  0
   19.7085  -14.8914    0.0000 N   0  0  0  0  0  0  0  0  0  0  0  0
   19.7085  -16.2881    0.0000 C   0  0  0  0  0  0  0  0  0  0  0  0
   18.4975  -16.9873    0.0000 N   0  0  0  0  0  0  0  0  0  0  0  0
   18.4975  -18.3839    0.0000 C   0  0  0  0  0  0  0  0  0  0  0  0
   19.7071  -19.0822    0.0000 C   0  0  0  0  0  0  0  0  0  0  0  0
   20.9181  -18.3830    0.0000 C   0  0  0  0  0  0  0  0  0  0  0  0
   20.9181  -16.9864    0.0000 C   0  0  0  0  0  0  0  0  0  0  0  0
   22.0941  -19.0620    0.0000 O   0  0  0  0  0  0  0  0  0  0  0  0
   23.2850  -18.3742    0.0000 C   0  0  0  0  0  0  0  0  0  0  0  0
   24.4703  -19.0586    0.0000 C   0  0  0  0  0  0  0  0  0  0  0  0
   25.6799  -18.3602    0.0000 C   0  0  0  0  0  0  0  0  0  0  0  0
   25.6799  -16.9636    0.0000 C   0  0  0  0  0  0  0  0  0  0  0  0
   24.4945  -16.2794    0.0000 C   0  0  0  0  0  0  0  0  0  0  0  0
   23.2850  -16.9776    0.0000 C   0  0  0  0  0  0  0  0  0  0  0  0
   22.0513  -16.2652    0.0000 O   0  0  0  0  0  0  0  0  0  0  0  0
   22.0513  -14.8686    0.0000 C   0  0  0  0  0  0  0  0  0  0  0  0
   23.2728  -14.1633    0.0000 C   0  0  0  0  0  0  0  0  0  0  0  0
   27.0080  -18.7919    0.0000 C   0  0  0  0  0  0  0  0  0  0  0  0
   27.8291  -17.6619    0.0000 C   0  0  0  0  0  0  0  0  0  0  0  0
   27.0081  -16.5321    0.0000 N   0  0  0  0  0  0  0  0  0  0  0  0
   27.4365  -15.2142    0.0000 C   0  0  0  0  0  0  0  0  0  0  0  0
   28.8114  -14.9222    0.0000 N   0  0  0  0  0  0  0  0  0  0  0  0
   26.5115  -14.1867    0.0000 O   0  0  0  0  0  0  0  0  0  0  0  0
   29.7711  -15.9887    0.0000 C   0  0  0  0  0  0  0  0  0  0  0  0
   23.2732  -12.7404    0.0000 O   0  0  0  0  0  0  0  0  0  0  0  0
   24.4609  -12.0548    0.0000 C   0  0  0  0  0  0  0  0  0  0  0  0
  1  2  1  0     0  0
  2  3  1  0     0  0
  3  4  1  0     0  0
  4  5  1  0     0  0
  5  6  1  0     0  0
  1  6  1  0     0  0
  1  7  1  0     0  0
  7  8  1  0     0  0
  4  9  1  0     0  0
  9 10  2  0     0  0
 10 11  1  0     0  0
 11 12  2  0     0  0
 12 13  1  0     0  0
 13 14  2  0     0  0
  9 14  1  0     0  0
 12 15  1  0     0  0
  8 16  1  0     0  0
 15 17  2  0     0  0
 15 18  1  0     0  0
 18 19  1  0     0  0
 19 20  2  0     0  0
 20 21  1  0     0  0
 21 22  2  0     0  0
 22 23  1  0     0  0
 23 24  2  0     0  0
 19 24  1  0     0  0
 23 25  1  0     0  0
 25 26  1  0     0  0
 26 27  2  0     0  0
 27 28  1  0     0  0
 28 29  2  0     0  0
 29 30  1  0     0  0
 30 31  2  0     0  0
 26 31  1  0     0  0
 31 32  1  0     0  0
 32 33  1  0     0  0
 33 34  1  0     0  0
 28 35  1  0     0  0
 35 36  2  0     0  0
 36 37  1  0     0  0
 29 37  1  0     0  0
 37 38  1  0     0  0
 38 39  1  0     0  0
 38 40  2  0     0  0
 39 41  1  0     0  0
 34 42  1  0     0  0
 42 43  1  0     0  0
M  END
