 
 
 
 31 35  0  0  1  0  0  0  0  0999 V2000
   17.8022  -14.0872    0.0000 C   0  0  0  0  0  0  0  0  0  0  0  0
   18.9170  -14.8536    0.0000 N   0  0  0  0  0  0  0  0  0  0  0  0
   20.1711  -14.2266    0.0000 C   0  0  0  0  0  0  0  0  0  0  0  0
   20.2407  -12.7634    0.0000 N   0  0  0  0  0  0  0  0  0  0  0  0
   19.0563  -11.9970    0.0000 C   0  0  0  0  0  0  0  0  0  0  0  0
   17.8022  -12.6937    0.0000 C   0  0  0  0  0  0  0  0  0  0  0  0
   21.4948  -14.7143    0.0000 C   0  0  0  0  0  0  0  0  0  0  0  0
   22.3310  -13.5996    0.0000 C   0  0  0  0  0  0  0  0  0  0  0  0
   21.5645  -12.4150    0.0000 N   0  0  0  0  0  0  0  0  0  0  0  0
   16.5481  -14.7143    0.0000 N   0  0  0  0  0  0  0  0  0  0  0  0
   15.6423  -13.5996    0.0000 C   0  0  0  0  0  0  0  0  0  0  0  0
   14.3881  -14.0872    0.0000 C   0  0  0  0  0  0  0  0  0  0  0  0
   14.4578  -15.4807    0.0000 C   0  0  0  0  0  0  0  0  0  0  0  0
   15.7816  -15.8291    0.0000 C   0  0  0  0  0  0  0  0  0  0  0  0
   14.4578  -19.2431    0.0000 C   0  0  0  0  0  0  0  0  0  0  0  0
   15.5726  -20.0095    0.0000 C   0  0  0  0  0  0  0  0  0  0  0  0
   16.8267  -19.3824    0.0000 N   0  0  0  0  0  0  0  0  0  0  0  0
   16.8964  -17.9890    0.0000 C   0  0  0  0  0  0  0  0  0  0  0  0
   15.7818  -17.2226    0.0000 C   0  0  0  0  0  0  0  0  0  0  0  0
   14.4578  -17.9193    0.0000 C   0  0  0  0  0  0  0  0  0  0  0  0
   13.2037  -19.8701    0.0000 F   0  0  0  0  0  0  0  0  0  0  0  0
   18.1505  -17.3618    0.0000 O   0  0  0  0  0  0  0  0  0  0  0  0
   19.2653  -18.1283    0.0000 C   0  0  0  0  0  0  0  0  0  0  0  0
   19.2653  -19.4521    0.0000 C   0  0  0  0  0  0  0  0  0  0  0  0
   17.1054  -16.2471    0.0000 H   0  0  0  0  0  0  0  0  0  0  0  0
   13.2037  -13.3208    0.0000 F   0  0  0  0  0  0  0  0  0  0  0  0
   21.4948  -16.1119    0.0000 N   0  0  0  0  0  0  0  0  0  0  0  0
   22.6917  -17.0128    0.0000 C   0  0  0  0  0  0  0  0  0  0  0  0
   20.5165  -17.4696    0.0000 C   0  0  0  0  0  0  0  0  0  0  0  0
   21.6733  -18.1992    0.0000 N   0  0  0  0  0  0  0  0  0  0  0  0
   24.1099  -17.0680    0.0000 O   0  0  0  0  0  0  0  0  0  0  0  0
  1  2  2  0     0  0
  2  3  1  0     0  0
  3  4  1  0     0  0
  4  5  1  0     0  0
  5  6  2  0     0  0
  1  6  1  0     0  0
  3  7  2  0     0  0
  7  8  1  0     0  0
  8  9  2  0     0  0
  4  9  1  0     0  0
  1 10  1  0     0  0
 10 11  1  0     0  0
 11 12  1  0     0  0
 12 13  1  0     0  0
 13 14  1  0     0  0
 10 14  1  0     0  0
 15 16  2  0     0  0
 16 17  1  0     0  0
 17 18  2  0     0  0
 18 19  1  0     0  0
 19 20  2  0     0  0
 15 20  1  0     0  0
 19 14  1  0     0  0
 15 21  1  0     0  0
 18 22  1  0     0  0
 22 23  1  0     0  0
 23 24  1  6     0  0
 14 25  1  6     0  0
 12 26  1  6     0  0
  7 27  1  0     0  0
 27 28  1  0     0  0
 23 29  1  0     0  0
 29 30  1  0     0  0
 28 30  1  0     0  0
 28 31  2  0     0  0
M  END
