 
 
 
 41 46  0  0  1  0  0  0  0  0999 V2000
   11.2700  -22.8900    0.0000 C   0  0  0  0  0  0  0  0  0  0  0  0
   11.2700  -24.2900    0.0000 C   0  0  0  0  0  0  0  0  0  0  0  0
   12.4600  -24.9900    0.0000 C   0  0  0  0  0  0  0  0  0  0  0  0
   13.7200  -24.2900    0.0000 C   0  0  0  0  0  0  0  0  0  0  0  0
   13.7200  -22.8900    0.0000 C   0  0  0  0  0  0  0  0  0  0  0  0
   12.4600  -22.1900    0.0000 C   0  0  0  0  0  0  0  0  0  0  0  0
   15.0500  -24.7100    0.0000 C   0  0  0  0  0  0  0  0  0  0  0  0
   15.8200  -23.5900    0.0000 N   0  0  0  0  0  0  0  0  0  0  0  0
   15.0500  -22.4700    0.0000 N   0  0  0  0  0  0  0  0  0  0  0  0
   15.4700  -26.0400    0.0000 C   0  0  0  0  0  0  0  0  0  0  0  0
   16.8700  -26.3200    0.0000 C   0  0  0  0  0  0  0  0  0  0  0  0
   14.5600  -27.0900    0.0000 O   0  0  0  0  0  0  0  0  0  0  0  0
   10.0800  -24.9900    0.0000 C   0  0  0  0  0  0  0  0  0  0  0  0
    8.8900  -24.2900    0.0000 C   0  0  0  0  0  0  0  0  0  0  0  0
    7.6300  -24.9900    0.0000 N   0  0  0  0  0  0  0  0  0  0  0  0
    7.6300  -26.3900    0.0000 C   0  0  0  0  0  0  0  0  0  0  0  0
    8.8200  -27.0900    0.0000 N   0  0  0  0  0  0  0  0  0  0  0  0
   10.0800  -26.3900    0.0000 C   0  0  0  0  0  0  0  0  0  0  0  0
    6.4400  -27.0900    0.0000 C   0  0  0  0  0  0  0  0  0  0  0  0
   15.4700  -21.1400    0.0000 C   0  0  0  0  0  0  0  0  0  0  0  0
   16.8700  -20.8600    0.0000 C   0  0  0  0  0  0  0  0  0  0  0  0
   17.7800  -21.9100    0.0000 N   0  0  0  0  0  0  0  0  0  0  0  0
   17.2900  -19.5300    0.0000 O   0  0  0  0  0  0  0  0  0  0  0  0
   17.5000  -23.3100    0.0000 C   0  0  0  0  0  0  0  0  0  0  0  0
   18.7600  -24.0100    0.0000 C   0  0  0  0  0  0  0  0  0  0  0  0
   19.7400  -23.0300    0.0000 C   0  0  0  0  0  0  0  0  0  0  0  0
   19.1800  -21.7700    0.0000 C   0  0  0  0  0  0  0  0  0  0  0  0
   22.7500  -19.6700    0.0000 C   0  0  0  0  0  0  0  0  0  0  0  0
   22.7500  -21.0700    0.0000 C   0  0  0  0  0  0  0  0  0  0  0  0
   23.9400  -21.7700    0.0000 N   0  0  0  0  0  0  0  0  0  0  0  0
   25.2000  -21.0700    0.0000 C   0  0  0  0  0  0  0  0  0  0  0  0
   25.2000  -19.6700    0.0000 C   0  0  0  0  0  0  0  0  0  0  0  0
   23.9400  -18.9700    0.0000 C   0  0  0  0  0  0  0  0  0  0  0  0
   26.3900  -21.7700    0.0000 Br  0  0  0  0  0  0  0  0  0  0  0  0
   21.5600  -21.7700    0.0000 N   0  0  0  0  0  0  0  0  0  0  0  0
   20.3700  -21.0700    0.0000 C   0  0  0  0  0  0  0  0  0  0  0  0
   20.3700  -19.6700    0.0000 O   0  0  0  0  0  0  0  0  0  0  0  0
   21.5600  -18.9700    0.0000 C   0  0  0  0  0  0  0  0  0  0  0  0
   17.5476  -24.7100    0.0000 C   0  0  0  0  0  0  0  0  0  0  0  0
   19.9724  -24.7100    0.0000 C   0  0  0  0  0  0  0  0  0  0  0  0
   16.2876  -22.6100    0.0000 H   0  0  0  0  0  0  0  0  0  0  0  0
  1  2  2  0     0  0
  2  3  1  0     0  0
  3  4  2  0     0  0
  4  5  1  0     0  0
  5  6  2  0     0  0
  1  6  1  0     0  0
  4  7  1  0     0  0
  7  8  2  0     0  0
  8  9  1  0     0  0
  5  9  1  0     0  0
  7 10  1  0     0  0
 10 11  1  0     0  0
 10 12  2  0     0  0
  2 13  1  0     0  0
 13 14  2  0     0  0
 14 15  1  0     0  0
 15 16  2  0     0  0
 16 17  1  0     0  0
 17 18  2  0     0  0
 13 18  1  0     0  0
 16 19  1  0     0  0
  9 20  1  0     0  0
 20 21  1  0     0  0
 21 22  1  0     0  0
 21 23  2  0     0  0
 22 24  1  0     0  0
 24 25  1  0     0  0
 25 26  1  0     0  0
 26 27  1  0     0  0
 22 27  1  0     0  0
 28 29  2  0     0  0
 29 30  1  0     0  0
 30 31  2  0     0  0
 31 32  1  0     0  0
 32 33  2  0     0  0
 28 33  1  0     0  0
 31 34  1  0     0  0
 29 35  1  0     0  0
 35 36  1  0     0  0
 27 36  1  6     0  0
 36 37  2  0     0  0
 28 38  1  0     0  0
 25 39  1  0     0  0
 24 39  1  0     0  0
 25 40  1  6     0  0
 24 41  1  6     0  0
M  END
