 
     RDKit          2D

  7  4  0  0  0  0  0  0  0  0999 V2000
   16.5900  -14.7700    0.0000 Mo  0  0  0  0  0  8  0  0  0  0  0  0
   16.5900  -13.2300    0.0000 S   0  0  0  0  0  0  0  0  0  0  0  0
   15.0500  -14.7700    0.0000 S   0  0  0  0  0  0  0  0  0  0  0  0
   16.5900  -16.3100    0.0000 S   0  0  0  0  0  0  0  0  0  0  0  0
   18.8300  -14.7700    0.0000 S   0  0  0  0  0  0  0  0  0  0  0  0
   19.8100  -14.1400    0.0000 H   0  0  0  0  0  0  0  0  0  0  0  0
   19.8100  -15.5400    0.0000 H   0  0  0  0  0  0  0  0  0  0  0  0
  1  2  2  0
  1  3  2  0
  1  4  2  0
  1  5  2  0
M  CHG  3   1  -2   6   1   7   1
M  END
