 
     RDKit          2D

 52 54  0  0  0  0  0  0  0  0999 V2000
   13.8833  -28.3419    0.0000 Na  0  0  0  0  0 15  0  0  0  0  0  0
    8.1900  -28.3500    0.0000 C   0  0  0  0  0  0  0  0  0  0  0  0
    8.1900  -29.7500    0.0000 C   0  0  0  0  0  0  0  0  0  0  0  0
    9.4024  -30.4500    0.0000 C   0  0  0  0  0  0  0  0  0  0  0  0
   10.6149  -29.7500    0.0000 C   0  0  0  0  0  0  0  0  0  0  0  0
   10.6149  -28.3500    0.0000 C   0  0  0  0  0  0  0  0  0  0  0  0
    9.4024  -27.6500    0.0000 C   0  0  0  0  0  0  0  0  0  0  0  0
    9.4024  -26.2502    0.0000 C   0  0  0  0  0  0  0  0  0  0  0  0
   10.5980  -25.5598    0.0000 C   0  0  0  0  0  0  0  0  0  0  0  0
   11.7852  -26.2452    0.0000 C   0  0  0  0  0  0  0  0  0  0  0  0
   12.9766  -25.5572    0.0000 C   0  0  0  0  0  0  0  0  0  0  0  0
   14.1659  -26.2439    0.0000 O   0  0  0  0  0  0  0  0  0  0  0  0
   12.9767  -24.1503    0.0000 O   0  0  0  0  0  0  0  0  0  0  0  0
   10.9193  -17.8924    0.0000 C   0  0  0  0  0  0  0  0  0  0  0  0
   10.9193  -19.2728    0.0000 C   0  0  0  0  0  0  0  0  0  0  0  0
   12.1147  -19.9630    0.0000 C   0  0  0  0  0  0  0  0  0  0  0  0
   13.3102  -19.2728    0.0000 C   0  0  0  0  0  0  0  0  0  0  0  0
   13.3102  -17.8924    0.0000 C   0  0  0  0  0  0  0  0  0  0  0  0
   12.1147  -17.2022    0.0000 C   0  0  0  0  0  0  0  0  0  0  0  0
   14.5056  -19.9630    0.0000 C   0  0  0  0  0  0  0  0  0  0  0  0
   15.7010  -19.2728    0.0000 C   0  0  0  0  0  0  0  0  0  0  0  0
   15.7010  -17.8924    0.0000 C   0  0  0  0  0  0  0  0  0  0  0  0
   14.5056  -17.2022    0.0000 C   0  0  0  0  0  0  0  0  0  0  0  0
   16.8965  -17.2022    0.0000 C   0  0  0  0  0  0  0  0  0  0  0  0
   16.8965  -15.8219    0.0000 C   0  0  0  0  0  0  0  0  0  0  0  0
   15.7010  -15.1317    0.0000 C   0  0  0  0  0  0  0  0  0  0  0  0
   14.5056  -15.8219    0.0000 C   0  0  0  0  0  0  0  0  0  0  0  0
   19.2873  -17.2022    0.0000 C   0  0  0  0  0  0  0  0  0  0  0  0
   19.2873  -15.8219    0.0000 C   0  0  0  0  0  0  0  0  0  0  0  0
   18.0919  -15.1317    0.0000 C   0  0  0  0  0  0  0  0  0  0  0  0
    9.7239  -19.9630    0.0000 O   0  0  0  0  0  0  0  0  0  0  0  0
   16.8818  -19.9546    0.0000 O   0  0  0  0  0  0  0  0  0  0  0  0
   13.3102  -20.6532    0.0000 H   0  0  0  0  0  0  0  0  0  0  0  0
   13.3102  -16.5121    0.0000 C   0  0  0  0  0  0  0  0  0  0  0  0
   15.7010  -16.5121    0.0000 H   0  0  0  0  0  0  0  0  0  0  0  0
   16.8965  -14.4415    0.0000 C   0  0  0  0  0  0  0  0  0  0  0  0
   18.0919  -13.7513    0.0000 C   0  0  0  0  0  0  0  0  0  0  0  0
   19.2913  -13.0589    0.0000 C   0  0  0  0  0  0  0  0  0  0  0  0
   16.9004  -13.0634    0.0000 C   0  0  0  0  0  0  0  0  0  0  0  0
   19.2873  -14.4415    0.0000 H   0  0  0  0  0  0  0  0  0  0  0  0
   20.4720  -13.7407    0.0000 C   0  0  0  0  0  0  0  0  0  0  0  0
   21.6417  -13.0654    0.0000 C   0  0  0  0  0  0  0  0  0  0  0  0
   22.8168  -13.7440    0.0000 N   0  0  0  0  0  0  0  0  0  0  0  0
   21.6419  -11.6810    0.0000 O   0  0  0  0  0  0  0  0  0  0  0  0
   23.9893  -13.0672    0.0000 C   0  0  0  0  0  0  0  0  0  0  0  0
   25.1629  -13.7449    0.0000 C   0  0  0  0  0  0  0  0  0  0  0  0
   26.3362  -13.0676    0.0000 S   0  0  0  0  0  0  0  0  0  0  0  0
   14.5056  -18.5826    0.0000 H   0  0  0  0  0  0  0  0  0  0  0  0
   16.8965  -18.5826    0.0000 H   0  0  0  0  0  0  0  0  0  0  0  0
   27.5459  -13.7661    0.0000 O   0  0  0  0  0  0  0  0  0  0  0  0
   27.5487  -12.3676    0.0000 O   0  0  0  0  0  0  0  0  0  0  0  0
   25.1238  -12.3676    0.0000 O   0  0  0  0  0  0  0  0  0  0  0  0
  2  3  2  0
  3  4  1  0
  4  5  2  0
  5  6  1  0
  6  7  2  0
  2  7  1  0
  7  8  1  0
  8  9  1  0
  9 10  1  0
 10 11  1  0
 11 12  1  0
 11 13  2  0
 14 15  1  0
 15 16  1  0
 16 17  1  0
 17 18  1  0
 18 19  1  0
 14 19  1  0
 17 20  1  0
 20 21  1  0
 21 22  1  0
 22 23  1  0
 18 23  1  0
 22 24  1  0
 24 25  1  0
 25 26  1  0
 26 27  1  0
 23 27  1  0
 24 28  1  0
 28 29  1  0
 29 30  1  0
 25 30  1  0
 15 31  1  6
 21 32  1  1
 17 33  1  1
 18 34  1  1
 22 35  1  1
 25 36  1  1
 30 37  1  0
 37 38  1  0
 37 39  1  6
 30 40  1  6
 38 41  1  0
 41 42  1  0
 42 43  1  0
 42 44  2  0
 43 45  1  0
 45 46  1  0
 46 47  1  0
 23 48  1  6
 24 49  1  6
 47 50  2  0
 47 51  1  0
 47 52  2  0
M  CHG  2   1   1  12  -1
M  END
