 
     RDKit          2D

 61 58  0  0  1  0  0  0  0  0999 V2000
   15.5804  -16.1394    0.0000 C   0  0  0  0  0  0  0  0  0  0  0  0
   15.5804  -17.5367    0.0000 C   0  0  0  0  0  0  0  0  0  0  0  0
   16.7682  -15.4407    0.0000 C   0  0  0  0  0  0  0  0  0  0  0  0
   14.3228  -15.4407    0.0000 O   0  0  0  0  0  0  0  0  0  0  0  0
   16.7682  -18.2354    0.0000 C   0  0  0  0  0  0  0  0  0  0  0  0
   14.3228  -18.2354    0.0000 O   0  0  0  0  0  0  0  0  0  0  0  0
   18.0258  -16.1394    0.0000 C   0  0  0  0  0  0  0  0  0  0  0  0
   18.0258  -17.5367    0.0000 C   0  0  0  0  0  0  0  0  0  0  0  0
   19.2834  -15.5106    0.0000 C   0  0  0  0  0  0  0  0  0  0  0  0
   20.4712  -16.1394    0.0000 C   0  0  0  0  0  0  0  0  0  0  0  0
   21.6589  -15.5106    0.0000 C   0  0  0  0  0  0  0  0  0  0  0  0
   20.4712  -17.5367    0.0000 N   0  0  0  0  0  0  0  0  0  0  0  0
   22.9165  -16.1394    0.0000 O   0  0  0  0  0  0  0  0  0  0  0  0
   21.6589  -14.1132    0.0000 O   0  0  0  0  0  0  0  0  0  0  0  0
   13.1572  -17.5371    0.0000 P   0  0  0  0  0  0  0  0  0  0  0  0
   11.9219  -18.2235    0.0000 O   0  0  0  0  0  0  0  0  0  0  0  0
   13.1795  -16.1701    0.0000 O   0  0  0  0  0  0  0  0  0  0  0  0
   11.9448  -16.8371    0.0000 O   0  0  0  0  0  0  0  0  0  0  0  0
   25.7362  -16.9464    0.0000 O   0  0  0  0  0  0  0  0  0  0  0  0
   13.9264  -16.1767    0.0000 C   0  0  0  0  0  0  0  0  0  0  0  0
   13.9264  -17.5833    0.0000 C   0  0  0  0  0  0  0  0  0  0  0  0
   15.1221  -18.2867    0.0000 C   0  0  0  0  0  0  0  0  0  0  0  0
   16.3880  -17.5833    0.0000 C   0  0  0  0  0  0  0  0  0  0  0  0
   16.3880  -16.1767    0.0000 C   0  0  0  0  0  0  0  0  0  0  0  0
   15.1221  -15.4734    0.0000 C   0  0  0  0  0  0  0  0  0  0  0  0
   12.7308  -15.4734    0.0000 O   0  0  0  0  0  0  0  0  0  0  0  0
   12.7308  -18.2867    0.0000 O   0  0  0  0  0  0  0  0  0  0  0  0
   17.5837  -15.4734    0.0000 C   0  0  0  0  0  0  0  0  0  0  0  0
   18.7793  -16.1767    0.0000 C   0  0  0  0  0  0  0  0  0  0  0  0
   19.9750  -15.4734    0.0000 C   0  0  0  0  0  0  0  0  0  0  0  0
   21.1706  -16.1767    0.0000 O   0  0  0  0  0  0  0  0  0  0  0  0
   19.9750  -14.0667    0.0000 O   0  0  0  0  0  0  0  0  0  0  0  0
   19.4826  -17.3723    0.0000 N   0  0  0  0  0  0  0  0  0  0  0  0
   17.7947  -17.1614    0.0000 C   0  0  0  0  0  0  0  0  0  0  0  0
   20.8893  -17.3723    0.0000 N   0  0  0  0  0  0  0  0  0  0  0  0
   11.5126  -17.5965    0.0000 P   0  0  0  0  0  0  0  0  0  0  0  0
   10.2940  -18.3138    0.0000 O   0  0  0  0  0  0  0  0  0  0  0  0
   11.5015  -16.1702    0.0000 O   0  0  0  0  0  0  0  0  0  0  0  0
   10.2584  -16.8861    0.0000 O   0  0  0  0  0  0  0  0  0  0  0  0
   25.7362  -16.9464    0.0000 O   0  0  0  0  0  0  0  0  0  0  0  0
   25.7362  -16.9464    0.0000 O   0  0  0  0  0  0  0  0  0  0  0  0
   16.8329  -16.1384    0.0000 C   0  0  0  0  0  0  0  0  0  0  0  0
   16.8329  -17.5417    0.0000 C   0  0  0  0  0  0  0  0  0  0  0  0
   18.0258  -18.2434    0.0000 C   0  0  0  0  0  0  0  0  0  0  0  0
   19.2887  -17.5417    0.0000 C   0  0  0  0  0  0  0  0  0  0  0  0
   19.2887  -16.1384    0.0000 C   0  0  0  0  0  0  0  0  0  0  0  0
   18.0258  -15.4367    0.0000 C   0  0  0  0  0  0  0  0  0  0  0  0
   15.6401  -15.4367    0.0000 O   0  0  0  0  0  0  0  0  0  0  0  0
   15.6401  -18.2434    0.0000 O   0  0  0  0  0  0  0  0  0  0  0  0
   20.4816  -15.4367    0.0000 C   0  0  0  0  0  0  0  0  0  0  0  0
   21.6744  -16.1384    0.0000 C   0  0  0  0  0  0  0  0  0  0  0  0
   22.8672  -15.4367    0.0000 C   0  0  0  0  0  0  0  0  0  0  0  0
   24.0601  -16.1384    0.0000 O   0  0  0  0  0  0  0  0  0  0  0  0
   22.8672  -14.0334    0.0000 O   0  0  0  0  0  0  0  0  0  0  0  0
   22.3761  -17.3312    0.0000 N   0  0  0  0  0  0  0  0  0  0  0  0
   20.6921  -17.1207    0.0000 C   0  0  0  0  0  0  0  0  0  0  0  0
   23.7794  -17.3312    0.0000 N   0  0  0  0  0  0  0  0  0  0  0  0
   14.3771  -17.5417    0.0000 P   0  0  0  0  0  0  0  0  0  0  0  0
   13.1843  -18.3136    0.0000 O   0  0  0  0  0  0  0  0  0  0  0  0
   14.3771  -16.1384    0.0000 O   0  0  0  0  0  0  0  0  0  0  0  0
   13.1843  -16.8401    0.0000 O   0  0  0  0  0  0  0  0  0  0  0  0
  1  2  2  0
  1  3  1  0
  1  4  1  0
  2  5  1  0
  2  6  1  0
  3  7  2  0
  5  8  2  0
  7  9  1  0
  9 10  1  0
 10 11  1  0
 10 12  1  1
 11 13  1  0
 11 14  2  0
  7  8  1  0
  6 15  1  0
 15 16  1  0
 15 17  1  0
 15 18  2  0
 20 21  2  0
 21 22  1  0
 22 23  2  0
 23 24  1  0
 24 25  2  0
 20 25  1  0
 20 26  1  0
 21 27  1  0
 24 28  1  0
 28 29  1  0
 29 30  1  0
 30 31  1  0
 30 32  2  0
 29 33  1  0
 29 34  1  6
 33 35  1  0
 27 36  1  0
 36 37  1  0
 36 38  1  0
 36 39  2  0
 42 43  2  0
 43 44  1  0
 44 45  2  0
 45 46  1  0
 46 47  2  0
 42 47  1  0
 42 48  1  0
 43 49  1  0
 46 50  1  0
 50 51  1  0
 51 52  1  0
 52 53  1  0
 52 54  2  0
 51 55  1  0
 51 56  1  6
 55 57  1  0
 49 58  1  0
 58 59  1  0
 58 60  1  0
 58 61  2  0
M  END
