 
 
 
 36 38  0  0  1  0  0  0  0  0999 V2000
   13.5800  -14.1400    0.0000 C   0  0  0  0  0  0  0  0  0  0  0  0
   14.7700  -14.8400    0.0000 O   0  0  0  0  0  0  0  0  0  0  0  0
   15.9600  -14.1400    0.0000 C   0  0  0  0  0  0  0  0  0  0  0  0
   17.1500  -14.8400    0.0000 C   0  0  0  0  0  0  0  0  0  0  0  0
   18.3400  -14.1400    0.0000 C   0  0  0  0  0  0  0  0  0  0  0  0
   19.5300  -14.8400    0.0000 N   0  0  0  0  0  0  0  0  0  0  0  0
   18.3400  -12.7400    0.0000 O   0  0  0  0  0  0  0  0  0  0  0  0
   19.5300  -16.2400    0.0000 C   0  0  0  0  0  0  0  0  0  0  0  0
   20.7900  -16.9400    0.0000 C   0  0  0  0  0  0  0  0  0  0  0  0
   21.9800  -16.2400    0.0000 N   0  0  0  0  0  0  0  0  0  0  0  0
   21.9800  -14.8400    0.0000 C   0  0  0  0  0  0  0  0  0  0  0  0
   20.7900  -14.1400    0.0000 C   0  0  0  0  0  0  0  0  0  0  0  0
   23.1700  -16.9400    0.0000 C   0  0  0  0  0  0  0  0  0  0  0  0
   23.1700  -18.3400    0.0000 N   0  0  0  0  0  0  0  0  0  0  0  0
   24.4300  -19.0400    0.0000 C   0  0  0  0  0  0  0  0  0  0  0  0
   25.6200  -18.3400    0.0000 C   0  0  0  0  0  0  0  0  0  0  0  0
   25.6200  -16.9400    0.0000 C   0  0  0  0  0  0  0  0  0  0  0  0
   24.4300  -16.2400    0.0000 N   0  0  0  0  0  0  0  0  0  0  0  0
   26.8100  -19.0400    0.0000 C   0  0  0  0  0  0  0  0  0  0  0  0
   28.0700  -19.7400    0.0000 F   0  0  0  0  0  0  0  0  0  0  0  0
   26.1100  -20.2300    0.0000 F   0  0  0  0  0  0  0  0  0  0  0  0
   27.5100  -17.8500    0.0000 F   0  0  0  0  0  0  0  0  0  0  0  0
   12.3900  -14.8400    0.0000 C   0  0  0  0  0  0  0  0  0  0  0  0
   11.2000  -14.1400    0.0000 N   0  0  0  0  0  0  0  0  0  0  0  0
   10.0100  -14.8400    0.0000 C   0  0  0  0  0  0  0  0  0  0  0  0
    7.5600  -14.8400    0.0000 C   0  0  0  0  0  0  0  0  0  0  0  0
    7.5600  -16.2400    0.0000 N   0  0  0  0  0  0  0  0  0  0  0  0
    8.7500  -16.9400    0.0000 N   0  0  0  0  0  0  0  0  0  0  0  0
   10.0100  -16.2400    0.0000 C   0  0  0  0  0  0  0  0  0  0  0  0
    8.7500  -14.1400    0.0000 C   0  0  0  0  0  0  0  0  0  0  0  0
    8.7500  -12.7400    0.0000 C   0  0  0  0  0  0  0  0  0  0  0  0
    7.3500  -12.7400    0.0000 F   0  0  0  0  0  0  0  0  0  0  0  0
   10.1500  -12.7400    0.0000 F   0  0  0  0  0  0  0  0  0  0  0  0
    8.7500  -11.3400    0.0000 F   0  0  0  0  0  0  0  0  0  0  0  0
    6.3700  -14.1400    0.0000 O   0  0  0  0  0  0  0  0  0  0  0  0
   12.3900  -16.2400    0.0000 C   0  0  0  0  0  0  0  0  0  0  0  0
  1  2  1  0     0  0
  2  3  1  0     0  0
  3  4  1  0     0  0
  4  5  1  0     0  0
  5  6  1  0     0  0
  5  7  2  0     0  0
  6  8  1  0     0  0
  8  9  1  0     0  0
  9 10  1  0     0  0
 10 11  1  0     0  0
 11 12  1  0     0  0
  6 12  1  0     0  0
 10 13  1  0     0  0
 13 14  2  0     0  0
 14 15  1  0     0  0
 15 16  2  0     0  0
 16 17  1  0     0  0
 17 18  2  0     0  0
 13 18  1  0     0  0
 16 19  1  0     0  0
 19 20  1  0     0  0
 19 21  1  0     0  0
 19 22  1  0     0  0
  1 23  1  0     0  0
 23 24  1  0     0  0
 24 25  1  0     0  0
 26 27  1  0     0  0
 27 28  1  0     0  0
 28 29  2  0     0  0
 29 25  1  0     0  0
 25 30  2  0     0  0
 26 30  1  0     0  0
 30 31  1  0     0  0
 31 32  1  0     0  0
 31 33  1  0     0  0
 31 34  1  0     0  0
 26 35  2  0     0  0
 23 36  1  6     0  0
M  END
