 
     RDKit          2D

 39 39  0  0  1  0  0  0  0  0999 V2000
   34.7054  -15.2068    0.0000 O   0  0  0  0  0  0  0  0  0  0  0  0
   34.2524  -13.3741    0.0000 Br  0  0  0  0  0  0  0  0  0  0  0  0
   24.6400  -15.4000    0.0000 C   0  0  0  0  0  0  0  0  0  0  0  0
   24.6400  -16.8000    0.0000 C   0  0  0  0  0  0  0  0  0  0  0  0
   25.8524  -17.5000    0.0000 C   0  0  0  0  0  0  0  0  0  0  0  0
   27.0649  -16.8000    0.0000 C   0  0  0  0  0  0  0  0  0  0  0  0
   27.0649  -15.4000    0.0000 C   0  0  0  0  0  0  0  0  0  0  0  0
   25.8524  -14.7000    0.0000 C   0  0  0  0  0  0  0  0  0  0  0  0
   28.2773  -14.7000    0.0000 C   0  0  0  0  0  0  0  0  0  0  0  0
   28.2773  -13.3000    0.0000 C   0  0  0  0  0  0  0  0  0  0  0  0
   27.0649  -12.6000    0.0000 C   0  0  0  0  0  0  0  0  0  0  0  0
   25.8524  -13.3000    0.0000 C   0  0  0  0  0  0  0  0  0  0  0  0
   27.0649  -11.2000    0.0000 C   0  0  0  0  0  0  0  0  0  0  0  0
   25.8524  -10.5000    0.0000 C   0  0  0  0  0  0  0  0  0  0  0  0
   24.6400  -11.2000    0.0000 C   0  0  0  0  0  0  0  0  0  0  0  0
   24.6400  -12.6000    0.0000 C   0  0  0  0  0  0  0  0  0  0  0  0
   23.4276  -10.5000    0.0000 O   0  0  0  0  0  0  0  0  0  0  0  0
   22.2321  -11.1904    0.0000 C   0  0  0  0  0  0  0  0  0  0  0  0
   27.0649  -14.0000    0.0000 C   0  0  0  0  0  0  0  0  0  0  0  0
   29.4918  -15.4012    0.0000 N   0  0  0  0  0  0  0  0  0  0  0  0
   29.4918  -14.0012    0.0000 C   0  0  0  0  0  0  0  0  0  0  0  0
   30.8918  -15.4012    0.0000 C   0  0  0  0  0  0  0  0  0  0  0  0
   15.4700  -16.1700    0.0000 C   0  0  0  0  0  0  0  0  0  0  0  0
   16.7300  -15.4700    0.0000 C   0  0  0  0  0  0  0  0  0  0  0  0
   14.2800  -15.4700    0.0000 C   0  0  0  0  0  0  0  0  0  0  0  0
   15.4700  -17.5700    0.0000 C   0  0  0  0  0  0  0  0  0  0  0  0
   17.9200  -16.1700    0.0000 C   0  0  0  0  0  0  0  0  0  0  0  0
   16.7300  -14.0700    0.0000 O   0  0  0  0  0  0  0  0  0  0  0  0
   13.0900  -16.1700    0.0000 C   0  0  0  0  0  0  0  0  0  0  0  0
   14.2800  -18.2700    0.0000 C   0  0  0  0  0  0  0  0  0  0  0  0
   19.1100  -15.4700    0.0000 N   0  0  0  0  0  0  0  0  0  0  0  0
   17.9200  -17.5700    0.0000 C   0  0  0  0  0  0  0  0  0  0  0  0
   13.0900  -17.5700    0.0000 C   0  0  0  0  0  0  0  0  0  0  0  0
   11.9000  -15.4700    0.0000 Cl  0  0  0  0  0  0  0  0  0  0  0  0
   20.3700  -16.1700    0.0000 C   0  0  0  0  0  0  0  0  0  0  0  0
   21.5600  -15.4700    0.0000 C   0  0  0  0  0  0  0  0  0  0  0  0
   20.3700  -17.5700    0.0000 C   0  0  0  0  0  0  0  0  0  0  0  0
   21.5600  -16.9400    0.0000 C   0  0  0  0  0  0  0  0  0  0  0  0
   25.3400  -15.4700    0.0000 Cl  0  0  0  0  0  0  0  0  0  0  0  0
  3  4  1  0
  4  5  1  0
  5  6  1  0
  7  6  1  1
  7  8  1  0
  8  3  1  6
  7  9  1  0
  9 10  1  6
 10 11  1  0
 11 12  2  0
  8 12  1  0
 11 13  1  0
 13 14  2  0
 14 15  1  0
 15 16  2  0
 12 16  1  0
 15 17  1  0
 17 18  1  0
  8 19  1  0
  9 20  1  0
 20 21  1  0
 21 19  1  0
 20 22  1  0
 23 24  1  0
 23 25  2  0
 23 26  1  0
 24 27  1  0
 24 28  2  0
 25 29  1  0
 26 30  2  0
 27 31  1  0
 27 32  1  0
 29 33  2  0
 29 34  1  0
 31 35  1  0
 35 36  1  0
 35 37  1  0
 35 38  1  0
 30 33  1  0
M  END
