 
 
 
 31 31  0  0  0  0  0  0  0  0999 V2000
    8.5191  -16.8517    0.0000 C   0  0  0  0  0  0  0  0  0  0  0  0
    8.5191  -18.2559    0.0000 C   0  0  0  0  0  0  0  0  0  0  0  0
    9.7830  -18.9581    0.0000 C   0  0  0  0  0  0  0  0  0  0  0  0
   10.9766  -18.2559    0.0000 C   0  0  0  0  0  0  0  0  0  0  0  0
   10.9766  -16.8517    0.0000 C   0  0  0  0  0  0  0  0  0  0  0  0
    9.7830  -16.1496    0.0000 C   0  0  0  0  0  0  0  0  0  0  0  0
   13.4340  -18.2559    0.0000 C   0  0  0  0  0  0  0  0  0  0  0  0
   13.4340  -16.8517    0.0000 C   0  0  0  0  0  0  0  0  0  0  0  0
   12.1702  -16.1496    0.0000 C   0  0  0  0  0  0  0  0  0  0  0  0
   14.6276  -18.9581    0.0000 C   0  0  0  0  0  0  0  0  0  0  0  0
   15.8213  -18.2559    0.0000 C   0  0  0  0  0  0  0  0  0  0  0  0
   15.8213  -16.8517    0.0000 C   0  0  0  0  0  0  0  0  0  0  0  0
   14.6276  -16.1496    0.0000 C   0  0  0  0  0  0  0  0  0  0  0  0
    7.3255  -18.9581    0.0000 O   0  0  0  0  0  0  0  0  0  0  0  0
    6.1319  -18.2559    0.0000 C   0  0  0  0  0  0  0  0  0  0  0  0
   12.1702  -14.7453    0.0000 C   0  0  0  0  0  0  0  0  0  0  0  0
   13.4340  -15.4474    0.0000 O   0  0  0  0  0  0  0  0  0  0  0  0
   10.9766  -14.0432    0.0000 N   0  0  0  0  0  0  0  0  0  0  0  0
    9.7830  -14.7453    0.0000 C   0  0  0  0  0  0  0  0  0  0  0  0
   10.9766  -12.6389    0.0000 C   0  0  0  0  0  0  0  0  0  0  0  0
   17.5000  -16.8700    0.0000 C   0  0  0  0  0  0  0  0  0  0  0  0
   17.5000  -18.2700    0.0000 C   0  0  0  0  0  0  0  0  0  0  0  0
   18.7124  -18.9700    0.0000 C   0  0  0  0  0  0  0  0  0  0  0  0
   19.9249  -18.2700    0.0000 C   0  0  0  0  0  0  0  0  0  0  0  0
   19.9249  -16.8700    0.0000 C   0  0  0  0  0  0  0  0  0  0  0  0
   18.7124  -16.1700    0.0000 C   0  0  0  0  0  0  0  0  0  0  0  0
   18.7124  -14.7702    0.0000 S   0  0  0  0  0  0  0  0  0  0  0  0
   17.3124  -14.7702    0.0000 O   0  0  0  0  0  0  0  0  0  0  0  0
   20.1124  -14.7702    0.0000 O   0  0  0  0  0  0  0  0  0  0  0  0
   18.7124  -13.3702    0.0000 O   0  0  0  0  0  0  0  0  0  0  0  0
   22.3300  -17.6400    0.0000 O   0  0  0  0  0  0  0  0  0  0  0  0
  1  2  2  0     0  0
  2  3  1  0     0  0
  3  4  2  0     0  0
  4  5  1  0     0  0
  5  6  2  0     0  0
  1  6  1  0     0  0
  7  8  1  0     0  0
  8  9  1  0     0  0
  5  9  1  0     0  0
  7 10  1  0     0  0
 10 11  1  0     0  0
 11 12  1  0     0  0
 12 13  1  0     0  0
  8 13  1  0     0  0
  2 14  1  0     0  0
 14 15  1  0     0  0
  9 16  1  0     0  0
  8 17  1  0     0  0
 16 18  1  0     0  0
 18 19  1  0     0  0
 18 20  1  0     0  0
 21 22  2  0     0  0
 22 23  1  0     0  0
 23 24  2  0     0  0
 24 25  1  0     0  0
 25 26  2  0     0  0
 21 26  1  0     0  0
 26 27  1  0     0  0
 27 28  2  0     0  0
 27 29  2  0     0  0
 27 30  1  0     0  0
M  END
