 
 
 
 15 16  0  0  1  0  0  0  0  0999 V2000
   17.4300  -15.9600    0.0000 C   0  0  0  0  0  0  0  0  0  0  0  0
   18.6200  -15.2600    0.0000 C   0  0  0  0  0  0  0  0  0  0  0  0
   16.1700  -15.2600    0.0000 C   0  0  3  0  0  0  0  0  0  0  0  0
   17.4300  -17.3600    0.0000 C   0  0  0  0  0  0  0  0  0  0  0  0
   19.8800  -15.9600    0.0000 C   0  0  0  0  0  0  0  0  0  0  0  0
   18.6200  -13.8600    0.0000 O   0  0  0  0  0  0  0  0  0  0  0  0
   16.1700  -13.8600    0.0000 C   0  0  0  0  0  0  0  0  0  0  0  0
   14.9800  -15.9600    0.0000 C   0  0  0  0  0  0  0  0  0  0  0  0
   18.6200  -18.0600    0.0000 C   0  0  0  0  0  0  0  0  0  0  0  0
   21.1400  -15.2600    0.0000 C   0  0  3  0  0  0  0  0  0  0  0  0
   19.8800  -17.3600    0.0000 C   0  0  0  0  0  0  0  0  0  0  0  0
   22.3300  -15.9600    0.0000 C   0  0  0  0  0  0  0  0  0  0  0  0
   21.1400  -13.8600    0.0000 C   0  0  0  0  0  0  0  0  0  0  0  0
   23.7300  -15.9600    0.0000 C   0  0  0  0  0  0  0  0  0  0  0  0
   23.0300  -17.1500    0.0000 C   0  0  0  0  0  0  0  0  0  0  0  0
  1  2  1  0     0  0
  1  3  1  0     0  0
  1  4  2  0     0  0
  2  5  2  0     0  0
  2  6  1  0     0  0
  3  7  1  0     0  0
  3  8  1  0     0  0
  4  9  1  0     0  0
  5 10  1  0     0  0
  5 11  1  0     0  0
 10 12  1  0     0  0
 10 13  1  6     0  0
  9 11  2  0     0  0
 12 14  1  0     0  0
 14 15  1  0     0  0
 15 12  1  0     0  0
M  END
