 
 
 
 25 27  0  0  1  0  0  0  0  0999 V2000
   12.6148  -13.8961    0.0000 C   0  0  0  0  0  0  0  0  0  0  0  0
   12.6148  -15.2990    0.0000 C   0  0  0  0  0  0  0  0  0  0  0  0
   13.8297  -16.0005    0.0000 C   0  0  0  0  0  0  0  0  0  0  0  0
   15.0447  -15.2990    0.0000 C   0  0  0  0  0  0  0  0  0  0  0  0
   15.0447  -13.8961    0.0000 C   0  0  0  0  0  0  0  0  0  0  0  0
   13.8297  -13.1947    0.0000 C   0  0  0  0  0  0  0  0  0  0  0  0
   16.2596  -16.0005    0.0000 C   0  0  0  0  0  0  0  0  0  0  0  0
   17.4745  -15.2990    0.0000 C   0  0  0  0  0  0  0  0  0  0  0  0
   17.4745  -13.8961    0.0000 C   0  0  0  0  0  0  0  0  0  0  0  0
   16.2596  -13.1947    0.0000 N   0  0  0  0  0  0  0  0  0  0  0  0
   18.6746  -13.2032    0.0000 O   0  0  0  0  0  0  0  0  0  0  0  0
   18.6746  -15.9919    0.0000 C   0  0  0  0  0  0  0  0  0  0  0  0
   19.8654  -15.3045    0.0000 N   0  0  0  0  0  0  0  0  0  0  0  0
   21.0587  -15.9935    0.0000 C   0  0  0  0  0  0  0  0  0  0  0  0
   21.0587  -17.4032    0.0000 C   0  0  0  0  0  0  0  0  0  0  0  0
   22.2736  -18.1046    0.0000 C   0  0  0  0  0  0  0  0  0  0  0  0
   23.4885  -17.4032    0.0000 C   0  0  0  0  0  0  0  0  0  0  0  0
   23.4885  -15.9936    0.0000 N   0  0  0  0  0  0  0  0  0  0  0  0
   22.2736  -15.2921    0.0000 C   0  0  0  0  0  0  0  0  0  0  0  0
   22.2737  -13.8963    0.0000 O   0  0  0  0  0  0  0  0  0  0  0  0
   24.6996  -15.2944    0.0000 C   0  0  0  0  0  0  0  0  0  0  0  0
   24.7026  -18.1041    0.0000 C   0  0  0  0  0  0  0  0  0  0  0  0
   25.9176  -18.8056    0.0000 N   0  0  0  0  0  0  0  0  0  0  0  0
   18.6747  -17.4031    0.0000 C   0  0  0  0  0  0  0  0  0  0  0  0
   11.3999  -16.0005    0.0000 Cl  0  0  0  0  0  0  0  0  0  0  0  0
  1  2  2  0     0  0
  2  3  1  0     0  0
  3  4  2  0     0  0
  4  5  1  0     0  0
  5  6  2  0     0  0
  1  6  1  0     0  0
  4  7  1  0     0  0
  8  7  2  0     0  0
  8  9  1  0     0  0
  9 10  1  0     0  0
  5 10  1  0     0  0
  9 11  2  0     0  0
  8 12  1  0     0  0
 12 13  1  0     0  0
 13 14  1  0     0  0
 14 15  2  0     0  0
 15 16  1  0     0  0
 16 17  2  0     0  0
 17 18  1  0     0  0
 18 19  1  0     0  0
 14 19  1  0     0  0
 19 20  2  0     0  0
 18 21  1  0     0  0
 17 22  1  0     0  0
 22 23  3  0     0  0
 12 24  1  1     0  0
  2 25  1  0     0  0
M  END
