 
 
 
 48 53  0  0  1  0  0  0  0  0999 V2000
   17.3600  -11.2700    0.0000 C   0  0  0  0  0  0  0  0  0  0  0  0
   17.3600  -12.6700    0.0000 C   0  0  0  0  0  0  0  0  0  0  0  0
   18.5724  -13.3700    0.0000 C   0  0  0  0  0  0  0  0  0  0  0  0
   19.7849  -12.6700    0.0000 C   0  0  0  0  0  0  0  0  0  0  0  0
   19.7849  -11.2700    0.0000 C   0  0  0  0  0  0  0  0  0  0  0  0
   18.5724  -10.5700    0.0000 C   0  0  0  0  0  0  0  0  0  0  0  0
   16.1476  -10.5700    0.0000 C   0  0  0  0  0  0  0  0  0  0  0  0
   14.9351  -11.2700    0.0000 C   0  0  0  0  0  0  0  0  0  0  0  0
   14.9351  -12.6700    0.0000 C   0  0  0  0  0  0  0  0  0  0  0  0
   16.1476  -13.3700    0.0000 N   0  0  0  0  0  0  0  0  0  0  0  0
   18.5724  -14.7698    0.0000 C   0  0  0  0  0  0  0  0  0  0  0  0
   19.7680  -15.4602    0.0000 N   0  0  0  0  0  0  0  0  0  0  0  0
   19.7681  -16.8697    0.0000 C   0  0  0  0  0  0  0  0  0  0  0  0
   20.9806  -17.5696    0.0000 C   0  0  0  0  0  0  0  0  0  0  0  0
   22.1930  -16.8695    0.0000 N   0  0  0  0  0  0  0  0  0  0  0  0
   22.1929  -15.4600    0.0000 C   0  0  0  0  0  0  0  0  0  0  0  0
   20.9804  -14.7601    0.0000 C   0  0  0  0  0  0  0  0  0  0  0  0
   23.4055  -17.5694    0.0000 C   0  0  0  0  0  0  0  0  0  0  0  0
   24.6179  -16.8693    0.0000 C   0  0  0  0  0  0  0  0  0  0  0  0
   24.6178  -15.4598    0.0000 N   0  0  0  0  0  0  0  0  0  0  0  0
   23.4053  -14.7599    0.0000 N   0  0  0  0  0  0  0  0  0  0  0  0
   18.5347  -17.5822    0.0000 O   0  0  0  0  0  0  0  0  0  0  0  0
   20.9807  -18.9699    0.0000 C   0  0  0  0  0  0  0  0  0  0  0  0
   19.7828  -19.6617    0.0000 C   0  0  0  0  0  0  0  0  0  0  0  0
   23.4056  -18.9698    0.0000 O   0  0  0  0  0  0  0  0  0  0  0  0
   25.8422  -14.7526    0.0000 C   0  0  0  0  0  0  0  0  0  0  0  0
   23.4050  -13.3702    0.0000 C   0  0  0  0  0  0  0  0  0  0  0  0
   22.1737  -12.6595    0.0000 O   0  0  0  0  0  0  0  0  0  0  0  0
   24.5985  -12.6807    0.0000 N   0  0  0  0  0  0  0  0  0  0  0  0
   25.7851  -13.3654    0.0000 C   0  0  0  0  0  0  0  0  0  0  0  0
   26.9765  -12.6771    0.0000 C   0  0  0  0  0  0  0  0  0  0  0  0
   28.1661  -13.3636    0.0000 C   0  0  0  0  0  0  0  0  0  0  0  0
   29.3784  -12.6633    0.0000 C   0  0  0  0  0  0  0  0  0  0  0  0
   29.3781  -11.2633    0.0000 C   0  0  0  0  0  0  0  0  0  0  0  0
   28.1885  -10.5768    0.0000 C   0  0  0  0  0  0  0  0  0  0  0  0
   26.9762  -11.2771    0.0000 C   0  0  0  0  0  0  0  0  0  0  0  0
   20.9805  -13.3701    0.0000 C   0  0  0  0  0  0  0  0  0  0  0  0
   22.1929  -14.0600    0.0000 H   0  0  0  0  0  0  0  0  0  0  0  0
   18.5944  -18.9756    0.0000 C   0  0  0  0  0  0  0  0  0  0  0  0
   17.3819  -19.6756    0.0000 C   0  0  0  0  0  0  0  0  0  0  0  0
   17.3820  -21.0756    0.0000 C   0  0  0  0  0  0  0  0  0  0  0  0
   18.5704  -21.7617    0.0000 C   0  0  0  0  0  0  0  0  0  0  0  0
   19.7828  -21.0617    0.0000 C   0  0  0  0  0  0  0  0  0  0  0  0
   16.1557  -21.7839    0.0000 O   0  0  0  0  0  0  0  0  0  0  0  0
   14.9480  -21.0868    0.0000 P   0  0  0  0  0  0  0  0  0  0  0  0
   13.7356  -20.3868    0.0000 O   0  0  0  0  0  0  0  0  0  0  0  0
   15.6480  -19.8744    0.0000 O   0  0  0  0  0  0  0  0  0  0  0  0
   14.2480  -22.2992    0.0000 O   0  0  0  0  0  0  0  0  0  0  0  0
  1  2  2  0     0  0
  2  3  1  0     0  0
  3  4  2  0     0  0
  4  5  1  0     0  0
  5  6  2  0     0  0
  1  6  1  0     0  0
  1  7  1  0     0  0
  7  8  2  0     0  0
  8  9  1  0     0  0
  9 10  2  0     0  0
  2 10  1  0     0  0
  3 11  1  0     0  0
 11 12  1  0     0  0
 12 13  1  0     0  0
 13 14  1  0     0  0
 14 15  1  0     0  0
 15 16  1  0     0  0
 16 17  1  0     0  0
 12 17  1  0     0  0
 15 18  1  0     0  0
 18 19  1  0     0  0
 19 20  1  0     0  0
 20 21  1  0     0  0
 16 21  1  0     0  0
 13 22  2  0     0  0
 14 23  1  1     0  0
 23 24  1  0     0  0
 18 25  2  0     0  0
 20 26  1  0     0  0
 21 27  1  0     0  0
 27 28  2  0     0  0
 27 29  1  0     0  0
 29 30  1  0     0  0
 30 31  1  0     0  0
 31 32  2  0     0  0
 32 33  1  0     0  0
 33 34  2  0     0  0
 34 35  1  0     0  0
 35 36  2  0     0  0
 31 36  1  0     0  0
 17 37  1  1     0  0
 16 38  1  1     0  0
 24 39  2  0     0  0
 39 40  1  0     0  0
 40 41  2  0     0  0
 41 42  1  0     0  0
 42 43  2  0     0  0
 24 43  1  0     0  0
 41 44  1  0     0  0
 44 45  1  0     0  0
 45 46  2  0     0  0
 45 47  1  0     0  0
 45 48  1  0     0  0
M  END
