 
 
 
 25 22  0  0  1  0  0  0  0  0999 V2000
   12.8800  -10.6400    0.0000 C   0  0  0  0  0  0  0  0  0  0  0  0
   12.8800  -12.0400    0.0000 N   0  0  0  0  0  0  0  0  0  0  0  0
   15.3300  -12.0400    0.0000 N   0  0  0  0  0  0  0  0  0  0  0  0
   15.3300  -10.6400    0.0000 C   0  0  0  0  0  0  0  0  0  0  0  0
   14.0700   -9.9400    0.0000 C   0  0  0  0  0  0  0  0  0  0  0  0
   16.6600  -12.4600    0.0000 C   0  0  0  0  0  0  0  0  0  0  0  0
   17.4300  -11.3400    0.0000 N   0  0  0  0  0  0  0  0  0  0  0  0
   16.6600  -10.2200    0.0000 C   0  0  0  0  0  0  0  0  0  0  0  0
   11.6900   -9.9400    0.0000 C   0  0  0  0  0  0  0  0  0  0  0  0
   10.5000  -10.6400    0.0000 O   0  5  0  0  0  0  0  0  0  0  0  0
   11.6900   -8.5400    0.0000 O   0  0  0  0  0  0  0  0  0  0  0  0
   15.2600  -15.7500    0.0000 C   0  0  0  0  0  0  0  0  0  0  0  0
   15.2600  -14.3500    0.0000 N   0  0  0  0  0  0  0  0  0  0  0  0
   12.8100  -14.3500    0.0000 N   0  0  0  0  0  0  0  0  0  0  0  0
   12.8100  -15.7500    0.0000 C   0  0  0  0  0  0  0  0  0  0  0  0
   14.0700  -16.4500    0.0000 C   0  0  0  0  0  0  0  0  0  0  0  0
   11.4800  -13.9300    0.0000 C   0  0  0  0  0  0  0  0  0  0  0  0
   10.7100  -15.0500    0.0000 N   0  0  0  0  0  0  0  0  0  0  0  0
   11.4800  -16.1700    0.0000 C   0  0  0  0  0  0  0  0  0  0  0  0
   16.4500  -16.4500    0.0000 C   0  0  0  0  0  0  0  0  0  0  0  0
   17.6400  -15.7500    0.0000 O   0  5  0  0  0  0  0  0  0  0  0  0
   16.4500  -17.8500    0.0000 O   0  0  0  0  0  0  0  0  0  0  0  0
   13.7200  -13.3700    0.0000 Zn  0  2  0  0  0  0  0  0  0  0  0  0
   21.0700  -14.6300    0.0000 O   0  0  0  0  0  0  0  0  0  0  0  0
   21.0700  -11.9000    0.0000 O   0  0  0  0  0  0  0  0  0  0  0  0
  1  2  1  6     0  0
  3  4  1  0     0  0
  4  5  1  0     0  0
  1  5  1  0     0  0
  3  6  2  0     0  0
  6  7  1  0     0  0
  7  8  1  0     0  0
  4  8  2  0     0  0
  1  9  1  0     0  0
  9 10  1  0     0  0
  9 11  2  0     0  0
 12 13  1  6     0  0
 14 15  1  0     0  0
 15 16  1  0     0  0
 12 16  1  0     0  0
 14 17  2  0     0  0
 17 18  1  0     0  0
 18 19  1  0     0  0
 15 19  2  0     0  0
 12 20  1  0     0  0
 20 21  1  0     0  0
 20 22  2  0     0  0
M  CHG  3  10  -1  21  -1  23   2
M  END
