 
 
 
 35 38  0  0  0  0  0  0  0  0999 V2000
   16.8381  -18.1008    0.0000 C   0  0  0  0  0  0  0  0  0  0  0  0
   16.8381  -19.5040    0.0000 C   0  0  0  0  0  0  0  0  0  0  0  0
   18.0308  -20.2056    0.0000 C   0  0  0  0  0  0  0  0  0  0  0  0
   19.2937  -19.5040    0.0000 C   0  0  0  0  0  0  0  0  0  0  0  0
   19.2937  -18.1008    0.0000 C   0  0  0  0  0  0  0  0  0  0  0  0
   18.0308  -17.3992    0.0000 C   0  0  0  0  0  0  0  0  0  0  0  0
   20.4864  -20.2056    0.0000 N   0  0  0  0  0  0  0  0  0  0  0  0
   21.6790  -19.5040    0.0000 C   0  0  0  0  0  0  0  0  0  0  0  0
   21.6790  -18.1008    0.0000 C   0  0  0  0  0  0  0  0  0  0  0  0
   20.4864  -17.3992    0.0000 C   0  0  0  0  0  0  0  0  0  0  0  0
   22.9419  -17.3992    0.0000 C   0  0  0  0  0  0  0  0  0  0  0  0
   24.1346  -18.1008    0.0000 C   0  0  0  0  0  0  0  0  0  0  0  0
   25.3273  -17.3992    0.0000 C   0  0  0  0  0  0  0  0  0  0  0  0
   25.3273  -15.9961    0.0000 C   0  0  0  0  0  0  0  0  0  0  0  0
   24.1346  -15.2945    0.0000 C   0  0  0  0  0  0  0  0  0  0  0  0
   22.9419  -15.9961    0.0000 C   0  0  0  0  0  0  0  0  0  0  0  0
   15.6454  -17.3992    0.0000 C   0  0  0  0  0  0  0  0  0  0  0  0
   15.6454  -15.9961    0.0000 C   0  0  0  0  0  0  0  0  0  0  0  0
   14.3826  -15.2945    0.0000 C   0  0  0  0  0  0  0  0  0  0  0  0
   13.1899  -15.9961    0.0000 C   0  0  0  0  0  0  0  0  0  0  0  0
   13.1899  -17.3992    0.0000 C   0  0  0  0  0  0  0  0  0  0  0  0
   14.3826  -18.1008    0.0000 C   0  0  0  0  0  0  0  0  0  0  0  0
   14.3826  -19.5040    0.0000 O   0  0  0  0  0  0  0  0  0  0  0  0
   11.9972  -18.1008    0.0000 C   0  0  0  0  0  0  0  0  0  0  0  0
   10.7344  -18.8024    0.0000 N   0  0  0  0  0  0  0  0  0  0  0  0
   26.5200  -18.1008    0.0000 F   0  0  0  0  0  0  0  0  0  0  0  0
   24.1346  -13.8913    0.0000 F   0  0  0  0  0  0  0  0  0  0  0  0
   20.4864  -15.9961    0.0000 N   0  0  0  0  0  0  0  0  0  0  0  0
   21.6790  -15.2945    0.0000 C   0  0  0  0  0  0  0  0  0  0  0  0
   21.6790  -13.8913    0.0000 C   0  0  0  0  0  0  0  0  0  0  0  0
   20.4864  -13.1897    0.0000 C   0  0  0  0  0  0  0  0  0  0  0  0
   19.2937  -13.8913    0.0000 C   0  0  0  0  0  0  0  0  0  0  0  0
   19.2937  -15.2945    0.0000 C   0  0  0  0  0  0  0  0  0  0  0  0
   20.4864  -11.7866    0.0000 N   0  0  0  0  0  0  0  0  0  0  0  0
   26.0400  -20.4400    0.0000 Cl  0  0  0  0  0  0  0  0  0  0  0  0
  1  2  2  0     0  0
  2  3  1  0     0  0
  3  4  2  0     0  0
  4  5  1  0     0  0
  5  6  2  0     0  0
  1  6  1  0     0  0
  4  7  1  0     0  0
  7  8  2  0     0  0
  8  9  1  0     0  0
  9 10  2  0     0  0
  5 10  1  0     0  0
  9 11  1  0     0  0
 11 12  2  0     0  0
 12 13  1  0     0  0
 13 14  2  0     0  0
 14 15  1  0     0  0
 15 16  2  0     0  0
 11 16  1  0     0  0
  1 17  1  0     0  0
 17 18  2  0     0  0
 18 19  1  0     0  0
 19 20  2  0     0  0
 20 21  1  0     0  0
 21 22  2  0     0  0
 17 22  1  0     0  0
 22 23  1  0     0  0
 21 24  1  0     0  0
 24 25  3  0     0  0
 13 26  1  0     0  0
 15 27  1  0     0  0
 10 28  1  0     0  0
 28 29  1  0     0  0
 29 30  1  0     0  0
 30 31  1  0     0  0
 31 32  1  0     0  0
 32 33  1  0     0  0
 28 33  1  0     0  0
 31 34  1  0     0  0
M  END
