 
 
 
 17 18  0  0  0  0  0  0  0  0999 V2000
   21.6993  -16.3269    0.0000 C   0  0  0  0  0  0  0  0  0  0  0  0
   21.6993  -14.9314    0.0000 C   0  0  0  0  0  0  0  0  0  0  0  0
   20.4434  -14.2337    0.0000 C   0  0  0  0  0  0  0  0  0  0  0  0
   19.2573  -14.9314    0.0000 C   0  0  0  0  0  0  0  0  0  0  0  0
   19.2573  -16.3269    0.0000 N   0  0  3  0  0  0  0  0  0  0  0  0
   20.4434  -17.0246    0.0000 C   0  0  0  0  0  0  0  0  0  0  0  0
   20.4434  -12.8383    0.0000 C   0  0  0  0  0  0  0  0  0  0  0  0
   20.4434  -18.4200    0.0000 O   0  0  0  0  0  0  0  0  0  0  0  0
   18.0712  -17.0246    0.0000 C   0  0  0  0  0  0  0  0  0  0  0  0
   16.8153  -16.3269    0.0000 C   0  0  0  0  0  0  0  0  0  0  0  0
   15.6291  -17.0246    0.0000 C   0  0  0  0  0  0  0  0  0  0  0  0
   15.6291  -18.4200    0.0000 C   0  0  0  0  0  0  0  0  0  0  0  0
   16.8153  -19.1177    0.0000 C   0  0  0  0  0  0  0  0  0  0  0  0
   18.0712  -18.4200    0.0000 C   0  0  0  0  0  0  0  0  0  0  0  0
   19.0434  -12.8383    0.0000 H   1  0  0  0  0  0  0  0  0  0  0  0
   21.8434  -12.8383    0.0000 H   1  0  0  0  0  0  0  0  0  0  0  0
   20.4434  -11.4383    0.0000 H   1  0  0  0  0  0  0  0  0  0  0  0
  3  7  1  0     0  0
  1  2  2  0     0  0
  6  8  2  0     0  0
  2  3  1  0     0  0
  5  9  1  0     0  0
  3  4  2  0     0  0
  4  5  1  0     0  0
  5  6  1  0     0  0
  6  1  1  0     0  0
  9 10  2  0     0  0
 10 11  1  0     0  0
 11 12  2  0     0  0
 12 13  1  0     0  0
 13 14  2  0     0  0
 14  9  1  0     0  0
  7 15  1  0     0  0
  7 16  1  0     0  0
  7 17  1  0     0  0
M  ISO  3  15   2  16   2  17   2
M  END
