 
 
 
 36 41  0  0  1  0  0  0  0  0999 V2000
    8.7500  -13.2300    0.0000 C   0  0  0  0  0  0  0  0  0  0  0  0
    8.7500  -14.6300    0.0000 C   0  0  0  0  0  0  0  0  0  0  0  0
    9.9400  -15.3300    0.0000 C   0  0  0  0  0  0  0  0  0  0  0  0
   11.2000  -14.6300    0.0000 N   0  0  0  0  0  0  0  0  0  0  0  0
   11.2000  -13.2300    0.0000 C   0  0  0  0  0  0  0  0  0  0  0  0
    9.9400  -12.5300    0.0000 N   0  0  0  0  0  0  0  0  0  0  0  0
   12.3900  -12.5300    0.0000 N   0  0  0  0  0  0  0  0  0  0  0  0
   13.5800  -13.2300    0.0000 C   0  0  0  0  0  0  0  0  0  0  0  0
   13.5800  -14.6300    0.0000 C   0  0  0  0  0  0  0  0  0  0  0  0
   14.8400  -15.3300    0.0000 C   0  0  0  0  0  0  0  0  0  0  0  0
   16.0300  -14.6300    0.0000 C   0  0  0  0  0  0  0  0  0  0  0  0
   16.0300  -13.2300    0.0000 C   0  0  0  0  0  0  0  0  0  0  0  0
   14.8400  -12.5300    0.0000 C   0  0  0  0  0  0  0  0  0  0  0  0
   17.2200  -12.5300    0.0000 C   0  0  0  0  0  0  0  0  0  0  0  0
   18.6200  -12.5300    0.0000 C   0  0  0  0  0  0  0  0  0  0  0  0
   17.9200  -11.3400    0.0000 C   0  0  0  0  0  0  0  0  0  0  0  0
   14.8572  -16.7299    0.0000 C   0  0  0  0  0  0  0  0  0  0  0  0
   16.0651  -17.4076    0.0000 N   0  0  0  0  0  0  0  0  0  0  0  0
   16.0819  -18.8299    0.0000 C   0  0  0  0  0  0  0  0  0  0  0  0
   17.3026  -19.5155    0.0000 C   0  0  0  0  0  0  0  0  0  0  0  0
   18.5066  -18.8011    0.0000 N   0  0  0  0  0  0  0  0  0  0  0  0
   18.4898  -17.3789    0.0000 C   0  0  0  0  0  0  0  0  0  0  0  0
   17.2691  -16.6933    0.0000 C   0  0  0  0  0  0  0  0  0  0  0  0
    9.9228  -16.7299    0.0000 C   0  0  0  0  0  0  0  0  0  0  0  0
    8.7916  -17.5308    0.0000 C   0  0  0  0  0  0  0  0  0  0  0  0
    9.2037  -18.8540    0.0000 N   0  0  0  0  0  0  0  0  0  0  0  0
   10.5896  -18.8710    0.0000 C   0  0  0  0  0  0  0  0  0  0  0  0
   11.0340  -17.5582    0.0000 C   0  0  0  0  0  0  0  0  0  0  0  0
   11.5136  -19.9228    0.0000 C   0  0  0  0  0  0  0  0  0  0  0  0
   12.8864  -19.6485    0.0000 C   0  0  0  0  0  0  0  0  0  0  0  0
   13.3308  -18.3357    0.0000 C   0  0  0  0  0  0  0  0  0  0  0  0
   12.4068  -17.2839    0.0000 C   0  0  0  0  0  0  0  0  0  0  0  0
   13.8183  -20.7090    0.0000 C   0  0  0  0  0  0  0  0  0  0  0  0
   17.3195  -20.9297    0.0000 C   0  0  0  0  0  0  0  0  0  0  0  0
   19.6948  -16.6640    0.0000 C   0  0  0  0  0  0  0  0  0  0  0  0
    7.5347  -15.3251    0.0000 Cl  0  0  0  0  0  0  0  0  0  0  0  0
  1  2  2  0     0  0
  2  3  1  0     0  0
  3  4  2  0     0  0
  4  5  1  0     0  0
  5  6  2  0     0  0
  1  6  1  0     0  0
  5  7  1  0     0  0
  7  8  1  0     0  0
  8  9  2  0     0  0
  9 10  1  0     0  0
 10 11  2  0     0  0
 11 12  1  0     0  0
 12 13  2  0     0  0
  8 13  1  0     0  0
 12 14  1  0     0  0
 14 15  1  0     0  0
 15 16  1  0     0  0
 16 14  1  0     0  0
 10 17  1  0     0  0
 17 18  1  0     0  0
 18 19  1  0     0  0
 19 20  1  0     0  0
 20 21  1  0     0  0
 21 22  1  0     0  0
 22 23  1  0     0  0
 18 23  1  0     0  0
  3 24  1  0     0  0
 24 25  2  0     0  0
 25 26  1  0     0  0
 26 27  1  0     0  0
 27 28  1  0     0  0
 24 28  1  0     0  0
 27 29  2  0     0  0
 29 30  1  0     0  0
 30 31  2  0     0  0
 31 32  1  0     0  0
 28 32  2  0     0  0
 30 33  1  0     0  0
 20 34  1  1     0  0
 22 35  1  1     0  0
  2 36  1  0     0  0
M  END
