 
 
 
 16 17  0  0  1  0  0  0  0  0999 V2000
   16.1728  -18.9724    0.0000 C   0  0  2  0  0  0  0  0  0  0  0  0
   17.5030  -18.4123    0.0000 N   0  0  3  0  0  0  0  0  0  0  0  0
   14.9826  -18.2023    0.0000 O   0  0  0  0  0  0  0  0  0  0  0  0
   15.6827  -20.3026    0.0000 C   0  0  2  0  0  0  0  0  0  0  0  0
   18.7632  -19.1124    0.0000 C   0  0  0  0  0  0  0  0  0  0  0  0
   17.5030  -17.0121    0.0000 C   0  0  0  0  0  0  0  0  0  0  0  0
   13.8624  -18.9724    0.0000 C   0  0  1  0  0  0  0  0  0  0  0  0
   14.2825  -20.3026    0.0000 C   0  0  1  0  0  0  0  0  0  0  0  0
   19.9533  -18.4123    0.0000 N   0  0  0  0  0  0  0  0  0  0  0  0
   18.7632  -20.5127    0.0000 O   0  0  0  0  0  0  0  0  0  0  0  0
   18.6932  -16.3120    0.0000 C   0  0  0  0  0  0  0  0  0  0  0  0
   12.5322  -18.5524    0.0000 C   0  0  0  0  0  0  0  0  0  0  0  0
   13.5124  -21.4228    0.0000 O   0  0  0  0  0  0  0  0  0  0  0  0
   19.9533  -17.0121    0.0000 C   0  0  0  0  0  0  0  0  0  0  0  0
   11.5521  -19.5325    0.0000 O   0  0  0  0  0  0  0  0  0  0  0  0
   21.1435  -16.3120    0.0000 N   0  0  0  0  0  0  0  0  0  0  0  0
  1  2  1  1     0  0
  1  3  1  0     0  0
  1  4  1  0     0  0
  2  5  1  0     0  0
  2  6  1  0     0  0
  3  7  1  0     0  0
  4  8  1  0     0  0
  5  9  1  0     0  0
  5 10  2  0     0  0
  6 11  2  0     0  0
  7 12  1  1     0  0
  8 13  1  6     0  0
  9 14  2  0     0  0
 12 15  1  0     0  0
 14 16  1  0     0  0
  7  8  1  0     0  0
 11 14  1  0     0  0
M  END
