 
 
 
 41 45  0  0  1  0  0  0  0  0999 V2000
   15.9779  -21.2060    0.0000 O   0  0  0  0  0  0  0  0  0  0  0  0
   15.2723  -20.0193    0.0000 C   0  0  0  0  0  0  0  0  0  0  0  0
   15.9666  -18.8260    0.0000 C   0  0  0  0  0  0  0  0  0  0  0  0
   15.2607  -17.5693    0.0000 C   0  0  0  0  0  0  0  0  0  0  0  0
   13.8607  -17.5760    0.0000 C   0  0  0  0  0  0  0  0  0  0  0  0
   13.1663  -18.7693    0.0000 C   0  0  0  0  0  0  0  0  0  0  0  0
   13.8723  -20.0259    0.0000 C   0  0  0  0  0  0  0  0  0  0  0  0
   15.9550  -16.3760    0.0000 F   0  0  0  0  0  0  0  0  0  0  0  0
   13.1551  -16.3893    0.0000 C   0  0  0  0  0  0  0  0  0  0  0  0
   13.9897  -15.2653    0.0000 N   0  0  0  0  0  0  0  0  0  0  0  0
   13.1445  -14.1493    0.0000 N   0  0  0  0  0  0  0  0  0  0  0  0
   11.8165  -14.5756    0.0000 C   0  0  0  0  0  0  0  0  0  0  0  0
   11.8231  -15.9756    0.0000 C   0  0  0  0  0  0  0  0  0  0  0  0
   10.6232  -13.8812    0.0000 N   0  0  0  0  0  0  0  0  0  0  0  0
    9.3665  -14.5872    0.0000 C   0  0  0  0  0  0  0  0  0  0  0  0
    9.3728  -15.9172    0.0000 N   0  0  0  0  0  0  0  0  0  0  0  0
   10.6361  -16.6112    0.0000 C   0  0  0  0  0  0  0  0  0  0  0  0
   10.6427  -18.0112    0.0000 N   0  0  0  0  0  0  0  0  0  0  0  0
   13.8388  -12.9560    0.0000 C   0  0  0  0  0  0  0  0  0  0  0  0
   15.2388  -12.9494    0.0000 C   0  0  0  0  0  0  0  0  0  0  0  0
   15.9328  -11.6861    0.0000 N   0  0  0  0  0  0  0  0  0  0  0  0
   15.2272  -10.4994    0.0000 C   0  0  0  0  0  0  0  0  0  0  0  0
   13.8272  -10.5060    0.0000 C   0  0  0  0  0  0  0  0  0  0  0  0
   13.1329  -11.6993    0.0000 C   0  0  0  0  0  0  0  0  0  0  0  0
   14.5445  -14.1651    0.0000 H   0  0  0  0  0  0  0  0  0  0  0  0
   17.3326  -11.6622    0.0000 C   0  0  0  0  0  0  0  0  0  0  0  0
   18.0047  -10.4512    0.0000 O   0  0  0  0  0  0  0  0  0  0  0  0
   18.0609  -12.8753    0.0000 C   0  0  0  0  0  0  0  0  0  0  0  0
   17.3804  -14.1019    0.0000 C   0  0  0  0  0  0  0  0  0  0  0  0
   19.4384  -12.8516    0.0000 C   0  0  0  0  0  0  0  0  0  0  0  0
   18.1217  -15.3373    0.0000 C   0  0  0  0  0  0  0  0  0  0  0  0
   17.4508  -16.5455    0.0000 C   0  0  0  0  0  0  0  0  0  0  0  0
   19.5200  -15.3139    0.0000 C   0  0  0  0  0  0  0  0  0  0  0  0
   18.8274  -16.5464    0.0000 C   0  0  0  0  0  0  0  0  0  0  0  0
   17.3600  -21.1995    0.0000 C   0  0  0  0  0  0  0  0  0  0  0  0
   18.0703  -22.4165    0.0000 C   0  0  0  0  0  0  0  0  0  0  0  0
   19.4702  -22.4098    0.0000 C   0  0  0  0  0  0  0  0  0  0  0  0
   20.1645  -21.1941    0.0000 C   0  0  0  0  0  0  0  0  0  0  0  0
   19.4542  -19.9772    0.0000 C   0  0  0  0  0  0  0  0  0  0  0  0
   18.0542  -19.9838    0.0000 C   0  0  0  0  0  0  0  0  0  0  0  0
   20.8384  -12.8516    0.0000 N   0  0  0  0  0  0  0  0  0  0  0  0
  1  2  1  0     0  0
  2  3  2  0     0  0
  3  4  1  0     0  0
  4  5  2  0     0  0
  5  6  1  0     0  0
  6  7  2  0     0  0
  2  7  1  0     0  0
  4  8  1  0     0  0
  5  9  1  0     0  0
  9 10  2  0     0  0
 10 11  1  0     0  0
 11 12  1  0     0  0
 12 13  1  0     0  0
  9 13  1  0     0  0
 12 14  2  0     0  0
 14 15  1  0     0  0
 15 16  2  0     0  0
 16 17  1  0     0  0
 13 17  2  0     0  0
 17 18  1  0     0  0
 19 11  1  6     0  0
 19 20  1  0     0  0
 20 21  1  0     0  0
 21 22  1  0     0  0
 22 23  1  0     0  0
 23 24  1  0     0  0
 19 24  1  0     0  0
 19 25  1  1     0  0
 21 26  1  0     0  0
 26 27  2  0     0  0
 26 28  1  0     0  0
 28 29  2  0     0  0
 28 30  1  0     0  0
 29 31  1  0     0  0
 31 32  1  0     0  0
 31 33  1  0     0  0
 31 34  1  0     0  0
  1 35  1  0     0  0
 35 36  2  0     0  0
 36 37  1  0     0  0
 37 38  2  0     0  0
 38 39  1  0     0  0
 39 40  2  0     0  0
 35 40  1  0     0  0
 30 41  3  0     0  0
M  END
