 
 
 
 36 41  0  0  1  0  0  0  0  0999 V2000
   19.0400  -15.2600    0.0000 C   0  0  0  0  0  0  0  0  0  0  0  0
   19.0400  -16.6600    0.0000 C   0  0  0  0  0  0  0  0  0  0  0  0
   20.2524  -17.3600    0.0000 C   0  0  0  0  0  0  0  0  0  0  0  0
   21.4649  -16.6600    0.0000 N   0  0  0  0  0  0  0  0  0  0  0  0
   21.4649  -15.2600    0.0000 C   0  0  0  0  0  0  0  0  0  0  0  0
   20.2524  -14.5600    0.0000 C   0  0  0  0  0  0  0  0  0  0  0  0
   22.5053  -14.3232    0.0000 N   0  0  0  0  0  0  0  0  0  0  0  0
   21.9359  -13.0442    0.0000 C   0  0  0  0  0  0  0  0  0  0  0  0
   20.5435  -13.1906    0.0000 O   0  0  0  0  0  0  0  0  0  0  0  0
   22.6398  -11.8253    0.0000 N   0  0  0  0  0  0  0  0  0  0  0  0
   24.0100  -11.8256    0.0000 C   0  0  0  0  0  0  0  0  0  0  0  0
   24.7102  -10.6133    0.0000 C   0  0  0  0  0  0  0  0  0  0  0  0
   24.0105   -9.4007    0.0000 O   0  0  0  0  0  0  0  0  0  0  0  0
   22.6403   -9.4004    0.0000 C   0  0  0  0  0  0  0  0  0  0  0  0
   21.9401  -10.6127    0.0000 C   0  0  0  0  0  0  0  0  0  0  0  0
   20.2524  -18.7598    0.0000 N   0  0  0  0  0  0  0  0  0  0  0  0
   19.1052  -19.5935    0.0000 C   0  0  0  0  0  0  0  0  0  0  0  0
   19.5436  -20.9423    0.0000 C   0  0  0  0  0  0  0  0  0  0  0  0
   20.9618  -20.9421    0.0000 C   0  0  0  0  0  0  0  0  0  0  0  0
   21.3999  -19.5933    0.0000 C   0  0  0  0  0  0  0  0  0  0  0  0
   17.8276  -17.3600    0.0000 N   0  0  0  0  0  0  0  0  0  0  0  0
   16.6321  -16.6696    0.0000 C   0  0  0  0  0  0  0  0  0  0  0  0
   15.4447  -17.3551    0.0000 C   0  0  0  0  0  0  0  0  0  0  0  0
   16.6320  -15.2603    0.0000 O   0  0  0  0  0  0  0  0  0  0  0  0
   14.1240  -16.9748    0.0000 N   0  0  0  0  0  0  0  0  0  0  0  0
   13.3511  -18.1118    0.0000 C   0  0  0  0  0  0  0  0  0  0  0  0
   14.1936  -19.1983    0.0000 O   0  0  0  0  0  0  0  0  0  0  0  0
   15.4873  -18.7328    0.0000 C   0  0  0  0  0  0  0  0  0  0  0  0
   11.9702  -18.1552    0.0000 C   0  0  0  0  0  0  0  0  0  0  0  0
   11.2487  -16.9301    0.0000 C   0  0  0  0  0  0  0  0  0  0  0  0
    9.8487  -16.9418    0.0000 C   0  0  0  0  0  0  0  0  0  0  0  0
    9.1588  -18.1600    0.0000 N   0  0  0  0  0  0  0  0  0  0  0  0
    9.8798  -19.3851    0.0000 C   0  0  0  0  0  0  0  0  0  0  0  0
   11.2798  -19.3734    0.0000 C   0  0  0  0  0  0  0  0  0  0  0  0
    9.1435  -15.7433    0.0000 C   0  0  0  0  0  0  0  0  0  0  0  0
   21.7677  -22.0517    0.0000 O   0  0  0  0  0  0  0  0  0  0  0  0
  1  2  2  0     0  0
  2  3  1  0     0  0
  3  4  2  0     0  0
  4  5  1  0     0  0
  5  6  2  0     0  0
  1  6  1  0     0  0
  5  7  1  0     0  0
  7  8  2  0     0  0
  8  9  1  0     0  0
  6  9  1  0     0  0
  8 10  1  0     0  0
 10 11  1  0     0  0
 11 12  1  0     0  0
 12 13  1  0     0  0
 13 14  1  0     0  0
 14 15  1  0     0  0
 10 15  1  0     0  0
  3 16  1  0     0  0
 16 17  1  0     0  0
 17 18  1  0     0  0
 18 19  1  0     0  0
 19 20  1  0     0  0
 16 20  1  0     0  0
  2 21  1  0     0  0
 21 22  1  0     0  0
 22 23  1  0     0  0
 22 24  2  0     0  0
 23 25  1  0     0  0
 25 26  2  0     0  0
 26 27  1  0     0  0
 27 28  1  0     0  0
 23 28  2  0     0  0
 26 29  1  0     0  0
 29 30  2  0     0  0
 30 31  1  0     0  0
 31 32  2  0     0  0
 32 33  1  0     0  0
 33 34  2  0     0  0
 29 34  1  0     0  0
 31 35  1  0     0  0
 19 36  1  6     0  0
M  END
