 
 
 
 36 37  0  0  1  0  0  0  0  0999 V2000
   10.6400  -13.7900    0.0000 C   0  0  0  0  0  0  0  0  0  0  0  0
   10.6400  -15.1900    0.0000 N   0  0  0  0  0  0  0  0  0  0  0  0
   11.8524  -15.8900    0.0000 C   0  0  0  0  0  0  0  0  0  0  0  0
   13.0649  -15.1900    0.0000 C   0  0  0  0  0  0  0  0  0  0  0  0
   13.0649  -13.7900    0.0000 C   0  0  0  0  0  0  0  0  0  0  0  0
   11.8524  -13.0900    0.0000 N   0  0  0  0  0  0  0  0  0  0  0  0
   14.2960  -15.9010    0.0000 C   0  0  0  0  0  0  0  0  0  0  0  0
   15.5012  -15.2053    0.0000 C   0  0  0  0  0  0  0  0  0  0  0  0
   16.6835  -15.8881    0.0000 C   0  0  0  0  0  0  0  0  0  0  0  0
   17.8960  -15.1883    0.0000 C   0  0  0  0  0  0  0  0  0  0  0  0
   17.8962  -13.7883    0.0000 C   0  0  0  0  0  0  0  0  0  0  0  0
   16.7138  -13.1055    0.0000 C   0  0  0  0  0  0  0  0  0  0  0  0
   15.5013  -13.8053    0.0000 C   0  0  0  0  0  0  0  0  0  0  0  0
    9.4276  -13.0900    0.0000 N   0  0  0  0  0  0  0  0  0  0  0  0
   11.8524  -17.2898    0.0000 C   0  0  0  0  0  0  0  0  0  0  0  0
   14.2960  -13.0790    0.0000 N   0  0  0  0  0  0  0  0  0  0  0  0
   14.3088  -11.6903    0.0000 C   0  0  0  0  0  0  0  0  0  0  0  0
   15.5057  -11.0136    0.0000 C   0  0  0  0  0  0  0  0  0  0  0  0
   16.7262  -11.7335    0.0000 C   0  0  0  0  0  0  0  0  0  0  0  0
   17.9366  -11.0500    0.0000 O   0  0  0  0  0  0  0  0  0  0  0  0
   13.0815  -10.9664    0.0000 C   0  0  0  0  0  0  0  0  0  0  0  0
   11.8591  -11.6570    0.0000 C   0  0  0  0  0  0  0  0  0  0  0  0
   10.6468  -10.9416    0.0000 C   0  0  0  0  0  0  0  0  0  0  0  0
   16.6834  -17.2898    0.0000 O   0  0  0  0  0  0  0  0  0  0  0  0
   15.4534  -18.0000    0.0000 C   0  0  0  0  0  0  0  0  0  0  0  0
   19.1256  -13.0784    0.0000 C   0  0  0  0  0  0  0  0  0  0  0  0
   20.3313  -13.7745    0.0000 N   0  0  0  0  0  0  0  0  0  0  0  0
   21.5135  -13.0919    0.0000 C   0  0  0  0  0  0  0  0  0  0  0  0
   20.3316  -15.1896    0.0000 C   0  0  0  0  0  0  0  0  0  0  0  0
   21.5204  -15.8760    0.0000 C   0  0  0  0  0  0  0  0  0  0  0  0
   22.7039  -15.1925    0.0000 O   0  0  0  0  0  0  0  0  0  0  0  0
   21.5208  -17.2897    0.0000 O   0  0  0  0  0  0  0  0  0  0  0  0
   21.5136  -11.6902    0.0000 C   0  0  0  0  0  0  0  0  0  0  0  0
   22.9136  -11.6902    0.0000 F   0  0  0  0  0  0  0  0  0  0  0  0
   20.1136  -11.6902    0.0000 F   0  0  0  0  0  0  0  0  0  0  0  0
   21.5136  -10.2902    0.0000 F   0  0  0  0  0  0  0  0  0  0  0  0
  1  2  2  0     0  0
  2  3  1  0     0  0
  3  4  2  0     0  0
  4  5  1  0     0  0
  5  6  2  0     0  0
  1  6  1  0     0  0
  4  7  1  0     0  0
  7  8  1  0     0  0
  8  9  2  0     0  0
  9 10  1  0     0  0
 10 11  2  0     0  0
 11 12  1  0     0  0
 12 13  2  0     0  0
  8 13  1  0     0  0
  1 14  1  0     0  0
  3 15  1  0     0  0
  5 16  1  0     0  0
 17 16  1  1     0  0
 17 18  1  0     0  0
 18 19  1  0     0  0
 19 20  1  0     0  0
 17 21  1  0     0  0
 21 22  1  0     0  0
 22 23  1  0     0  0
  9 24  1  0     0  0
 24 25  1  0     0  0
 11 26  1  0     0  0
 26 27  1  0     0  0
 27 28  1  0     0  0
 27 29  1  0     0  0
 29 30  1  0     0  0
 30 31  1  0     0  0
 30 32  2  0     0  0
 28 33  1  0     0  0
 33 34  1  0     0  0
 33 35  1  0     0  0
 33 36  1  0     0  0
M  END
