 
 
 
 36 38  0  0  1  0  0  0  0  0999 V2000
   19.2500  -17.7100    0.0000 C   0  0  0  0  0  0  0  0  0  0  0  0
   20.7200  -17.7100    0.0000 O   0  0  0  0  0  0  0  0  0  0  0  0
   21.0700  -16.3800    0.0000 C   0  0  0  0  0  0  0  0  0  0  0  0
   20.0200  -15.5400    0.0000 O   0  0  0  0  0  0  0  0  0  0  0  0
   18.9000  -16.3800    0.0000 C   0  0  0  0  0  0  0  0  0  0  0  0
   17.5700  -15.9600    0.0000 N   0  0  0  0  0  0  0  0  0  0  0  0
   15.1200  -14.5600    0.0000 C   0  0  0  0  0  0  0  0  0  0  0  0
   15.1200  -15.9600    0.0000 N   0  0  0  0  0  0  0  0  0  0  0  0
   16.3800  -16.7300    0.0000 C   0  0  0  0  0  0  0  0  0  0  0  0
   17.5700  -14.5600    0.0000 C   0  0  0  0  0  0  0  0  0  0  0  0
   16.3800  -13.8600    0.0000 C   0  0  0  0  0  0  0  0  0  0  0  0
   16.3800  -18.0600    0.0000 O   0  0  0  0  0  0  0  0  0  0  0  0
   13.9300  -13.8600    0.0000 N   0  0  0  0  0  0  0  0  0  0  0  0
   22.2600  -15.6800    0.0000 C   0  0  0  0  0  0  0  0  0  0  0  0
   23.4500  -16.3800    0.0000 O   0  0  0  0  0  0  0  0  0  0  0  0
   24.6681  -15.6899    0.0000 P   0  0  0  0  0  0  0  0  0  0  0  0
   25.8805  -14.9899    0.0000 O   0  0  0  0  0  0  0  0  0  0  0  0
   25.3516  -16.8856    0.0000 O   0  0  0  0  0  0  0  0  0  0  0  0
   24.6681  -14.2899    0.0000 N   0  0  0  0  0  0  0  0  0  0  0  0
   23.4303  -13.5753    0.0000 C   0  0  0  0  0  0  0  0  0  0  0  0
   22.2308  -14.2681    0.0000 C   0  0  0  0  0  0  0  0  0  0  0  0
   23.4302  -12.1801    0.0000 C   0  0  0  0  0  0  0  0  0  0  0  0
   22.2326  -11.4886    0.0000 O   0  0  0  0  0  0  0  0  0  0  0  0
   24.6575  -11.4715    0.0000 O   0  0  0  0  0  0  0  0  0  0  0  0
   21.0445  -12.1746    0.0000 C   0  0  0  0  0  0  0  0  0  0  0  0
   19.8536  -11.4870    0.0000 C   0  0  0  0  0  0  0  0  0  0  0  0
   21.0444  -13.5798    0.0000 C   0  0  0  0  0  0  0  0  0  0  0  0
   18.6640  -12.1738    0.0000 C   0  0  0  0  0  0  0  0  0  0  0  0
   17.4738  -11.4865    0.0000 C   0  0  0  0  0  0  0  0  0  0  0  0
   27.1031  -15.6959    0.0000 C   0  0  0  0  0  0  0  0  0  0  0  0
   27.1028  -17.0799    0.0000 C   0  0  0  0  0  0  0  0  0  0  0  0
   28.3151  -17.7802    0.0000 C   0  0  0  0  0  0  0  0  0  0  0  0
   29.5277  -17.0805    0.0000 C   0  0  0  0  0  0  0  0  0  0  0  0
   29.5280  -15.6964    0.0000 C   0  0  0  0  0  0  0  0  0  0  0  0
   28.3157  -14.9962    0.0000 C   0  0  0  0  0  0  0  0  0  0  0  0
   30.7490  -17.7860    0.0000 Br  0  0  0  0  0  0  0  0  0  0  0  0
  1  2  1  0     0  0
  2  3  1  0     0  0
  3  4  1  0     0  0
  4  5  1  0     0  0
  1  5  1  0     0  0
  5  6  1  1     0  0
  7  8  2  0     0  0
  8  9  1  0     0  0
  9  6  1  0     0  0
  6 10  1  0     0  0
 10 11  2  0     0  0
  7 11  1  0     0  0
  9 12  2  0     0  0
  7 13  1  0     0  0
 14 15  1  0     0  0
  3 14  1  1     0  0
 15 16  1  0     0  0
 16 17  1  1     0  0
 16 18  2  0     0  0
 16 19  1  0     0  0
 19 20  1  0     0  0
 20 21  1  1     0  0
 20 22  1  0     0  0
 22 23  1  0     0  0
 22 24  2  0     0  0
 23 25  1  0     0  0
 25 26  1  0     0  0
 25 27  1  1     0  0
 26 28  1  0     0  0
 28 29  1  0     0  0
 17 30  1  0     0  0
 30 31  2  0     0  0
 31 32  1  0     0  0
 32 33  2  0     0  0
 33 34  1  0     0  0
 34 35  2  0     0  0
 30 35  1  0     0  0
 33 36  1  0     0  0
M  END
