 
 
 
 17 18  0  0  1  0  0  0  0  0999 V2000
   18.4887  -16.5203    0.0000 C   0  0  2  0  0  0  0  0  0  0  0  0
   17.3639  -15.6768    0.0000 O   0  0  0  0  0  0  0  0  0  0  0  0
   18.0669  -17.8560    0.0000 C   0  0  0  0  0  0  0  0  0  0  0  0
   16.2391  -16.5203    0.0000 C   0  0  1  0  0  0  0  0  0  0  0  0
   16.6609  -17.8560    0.0000 C   0  0  1  0  0  0  0  0  0  0  0  0
   14.9035  -16.0985    0.0000 C   0  0  0  0  0  0  0  0  0  0  0  0
   16.2391  -19.1917    0.0000 O   0  0  0  0  0  0  0  0  0  0  0  0
   13.8490  -17.0124    0.0000 O   0  0  0  0  0  0  0  0  0  0  0  0
   19.8243  -16.2391    0.0000 N   0  0  3  0  0  0  0  0  0  0  0  0
   21.0194  -16.9421    0.0000 C   0  0  0  0  0  0  0  0  0  0  0  0
   19.8243  -14.8332    0.0000 C   0  0  0  0  0  0  0  0  0  0  0  0
   22.2145  -16.2391    0.0000 N   0  0  0  0  0  0  0  0  0  0  0  0
   21.0191  -18.3481    0.0000 O   0  0  0  0  0  0  0  0  0  0  0  0
   21.0194  -14.1302    0.0000 C   0  0  0  0  0  0  0  0  0  0  0  0
   22.2145  -14.8332    0.0000 C   0  0  0  0  0  0  0  0  0  0  0  0
   21.0194  -12.7242    0.0000 C   0  0  0  0  0  0  0  0  0  0  0  0
   23.4798  -14.1302    0.0000 O   0  0  0  0  0  0  0  0  0  0  0  0
  1  2  1  0     0  0
  1  3  1  0     0  0
  2  4  1  0     0  0
  3  5  1  0     0  0
  4  6  1  1     0  0
  5  7  1  6     0  0
  6  8  1  0     0  0
  4  5  1  0     0  0
  9 10  1  0     0  0
  9 11  1  0     0  0
 10 12  1  0     0  0
 10 13  2  0     0  0
 11 14  2  0     0  0
 12 15  1  0     0  0
 14 16  1  0     0  0
 15 17  2  0     0  0
 14 15  1  0     0  0
  1  9  1  1     0  0
M  END
