 
 
 
 26 27  0  0  1  0  0  0  0  0999 V2000
   17.9200  -16.2400    0.0000 N   0  0  0  0  0  0  0  0  0  0  0  0
   19.3200  -14.7000    0.0000 C   0  0  0  0  0  0  0  0  0  0  0  0
   18.8300  -17.2200    0.0000 N   0  0  0  0  0  0  0  0  0  0  0  0
   19.6700  -16.0300    0.0000 C   0  0  0  0  0  0  0  0  0  0  0  0
   17.5000  -17.5000    0.0000 C   0  0  0  0  0  0  0  0  0  0  0  0
   20.5800  -16.3100    0.0000 C   0  0  0  0  0  0  0  0  0  0  0  0
   19.8800  -17.2200    0.0000 C   0  0  0  0  0  0  0  0  0  0  0  0
   21.6300  -18.3400    0.0000 C   0  0  0  0  0  0  0  0  0  0  0  0
   16.3800  -18.3400    0.0000 O   0  0  0  0  0  0  0  0  0  0  0  0
   19.3900  -18.8300    0.0000 C   0  0  0  0  0  0  0  0  0  0  0  0
   18.0600  -19.1800    0.0000 O   0  0  0  0  0  0  0  0  0  0  0  0
   20.3700  -19.8100    0.0000 N   0  0  0  0  0  0  0  0  0  0  0  0
   17.0800  -15.1200    0.0000 O   0  0  0  0  0  0  0  0  0  0  0  0
   17.0800  -13.7200    0.0000 S   0  0  0  0  0  0  0  0  0  0  0  0
   15.6800  -13.7200    0.0000 O   0  0  0  0  0  0  0  0  0  0  0  0
   18.4800  -13.7200    0.0000 O   0  0  0  0  0  0  0  0  0  0  0  0
   17.0800  -12.3200    0.0000 O   0  0  0  0  0  0  0  0  0  0  0  0
   15.8676  -11.6200    0.0000 C   0  0  0  0  0  0  0  0  0  0  0  0
   14.6721  -12.3104    0.0000 C   0  0  0  0  0  0  0  0  0  0  0  0
   13.4847  -11.6249    0.0000 C   0  0  0  0  0  0  0  0  0  0  0  0
   14.6720  -13.7197    0.0000 C   0  0  0  0  0  0  0  0  0  0  0  0
   14.6721  -10.9104    0.0000 C   0  0  0  0  0  0  0  0  0  0  0  0
   12.2935  -12.3129    0.0000 O   0  0  0  0  0  0  0  0  0  0  0  0
   13.4845  -10.2202    0.0000 O   0  0  0  0  0  0  0  0  0  0  0  0
   11.1040  -11.6262    0.0000 C   0  0  0  0  0  0  0  0  0  0  0  0
    9.9139  -12.3135    0.0000 C   0  0  0  0  0  0  0  0  0  0  0  0
  2  3  1  0     0  0
  2  4  1  0     0  0
  1  4  1  0     0  0
  1  5  1  0     0  0
  5  3  1  0     0  0
  4  6  1  0     0  0
  3  7  1  0     0  0
  7  8  1  0     0  0
  6  8  1  0     0  0
  5  9  2  0     0  0
  7 10  1  1     0  0
 10 11  2  0     0  0
 10 12  1  0     0  0
  1 13  1  0     0  0
 13 14  1  0     0  0
 14 15  2  0     0  0
 14 16  2  0     0  0
 14 17  1  0     0  0
 17 18  1  0     0  0
 18 19  1  0     0  0
 19 20  1  0     0  0
 19 21  1  0     0  0
 19 22  1  0     0  0
 20 23  1  0     0  0
 20 24  2  0     0  0
 23 25  1  0     0  0
 25 26  1  0     0  0
M  END
