 
 
 
 12 13  0  0  1  0  0  0  0  0999 V2000
   10.2900  -16.8000    0.0000 C   0  0  0  0  0  0  0  0  0  0  0  0
   10.2900  -18.2000    0.0000 C   0  0  0  0  0  0  0  0  0  0  0  0
   11.5024  -18.9000    0.0000 C   0  0  0  0  0  0  0  0  0  0  0  0
   12.7149  -18.2000    0.0000 C   0  0  0  0  0  0  0  0  0  0  0  0
   12.7149  -16.8000    0.0000 C   0  0  0  0  0  0  0  0  0  0  0  0
   11.5024  -16.1000    0.0000 O   0  0  0  0  0  0  0  0  0  0  0  0
   13.9460  -16.0890    0.0000 C   0  0  0  0  0  0  0  0  0  0  0  0
   15.1512  -16.7847    0.0000 N   0  0  0  0  0  0  0  0  0  0  0  0
   16.3335  -16.1019    0.0000 C   0  0  0  0  0  0  0  0  0  0  0  0
   11.7935  -20.2694    0.0000 C   0  0  0  0  0  0  0  0  0  0  0  0
   13.1859  -20.4158    0.0000 C   0  0  0  0  0  0  0  0  0  0  0  0
   13.7553  -19.1368    0.0000 S   0  0  0  0  0  0  0  0  0  0  0  0
  1  2  1  0     0  0
  2  3  1  0     0  0
  3  4  2  0     0  0
  4  5  1  0     0  0
  5  6  1  0     0  0
  1  6  1  0     0  0
  5  7  1  1     0  0
  7  8  1  0     0  0
  8  9  1  0     0  0
  3 10  1  0     0  0
 10 11  2  0     0  0
 11 12  1  0     0  0
  4 12  1  0     0  0
M  END
