 
 
 
 22 21  0  0  1  0  0  0  0  0999 V2000
    4.9700  -15.4700    0.0000 C   0  0  0  0  0  0  0  0  0  0  0  0
    6.1824  -14.7700    0.0000 C   0  0  0  0  0  0  0  0  0  0  0  0
    7.3949  -15.4700    0.0000 N   0  0  0  0  0  0  0  0  0  0  0  0
    8.6073  -14.7700    0.0000 C   0  0  0  0  0  0  0  0  0  0  0  0
    9.8197  -15.4700    0.0000 C   0  0  0  0  0  0  0  0  0  0  0  0
   11.0322  -14.7700    0.0000 C   0  0  0  0  0  0  0  0  0  0  0  0
   12.2446  -15.4700    0.0000 C   0  0  0  0  0  0  0  0  0  0  0  0
   13.4570  -14.7700    0.0000 N   0  0  0  0  0  0  0  0  0  0  0  0
   14.6695  -15.4700    0.0000 C   0  0  0  0  0  0  0  0  0  0  0  0
   15.8819  -14.7700    0.0000 C   0  0  0  0  0  0  0  0  0  0  0  0
   17.0944  -15.4700    0.0000 C   0  0  0  0  0  0  0  0  0  0  0  0
   18.3068  -14.7700    0.0000 C   0  0  0  0  0  0  0  0  0  0  0  0
   19.5192  -15.4700    0.0000 N   0  0  0  0  0  0  0  0  0  0  0  0
   20.7317  -14.7700    0.0000 C   0  0  0  0  0  0  0  0  0  0  0  0
   21.9441  -15.4700    0.0000 C   0  0  0  0  0  0  0  0  0  0  0  0
   23.1565  -14.7700    0.0000 C   0  0  0  0  0  0  0  0  0  0  0  0
   24.3690  -15.4700    0.0000 C   0  0  0  0  0  0  0  0  0  0  0  0
   25.5814  -14.7700    0.0000 N   0  0  0  0  0  0  0  0  0  0  0  0
   26.7938  -15.4700    0.0000 C   0  0  0  0  0  0  0  0  0  0  0  0
   28.0063  -14.7700    0.0000 C   0  0  0  0  0  0  0  0  0  0  0  0
   11.0322  -13.3703    0.0000 O   0  0  0  0  0  0  0  0  0  0  0  0
   21.9441  -16.8696    0.0000 O   0  0  0  0  0  0  0  0  0  0  0  0
  1  2  1  0     0  0
  2  3  1  0     0  0
  3  4  1  0     0  0
  4  5  1  0     0  0
  5  6  1  0     0  0
  6  7  1  0     0  0
  7  8  1  0     0  0
  8  9  1  0     0  0
  9 10  1  0     0  0
 10 11  1  0     0  0
 11 12  1  0     0  0
 12 13  1  0     0  0
 13 14  1  0     0  0
 14 15  1  0     0  0
 15 16  1  0     0  0
 16 17  1  0     0  0
 17 18  1  0     0  0
 18 19  1  0     0  0
 19 20  1  0     0  0
  6 21  1  6     0  0
 15 22  1  6     0  0
M  END
