 
     RDKit          2D

 56 64  0  0  1  0  0  0  0  0999 V2000
   25.2062  -19.0694    0.0000 C   0  0  0  0  0  0  0  0  0  0  0  0
   24.0333  -19.7462    0.0000 C   0  0  0  0  0  0  0  0  0  0  0  0
   25.2236  -17.7159    0.0000 C   0  0  0  0  0  0  0  0  0  0  0  0
   27.5515  -19.0985    0.0000 C   0  0  0  0  0  0  0  0  0  0  0  0
   22.8607  -19.0518    0.0000 C   0  0  0  0  0  0  0  0  0  0  0  0
   24.0333  -21.1054    0.0000 C   0  0  0  0  0  0  0  0  0  0  0  0
   26.4022  -17.0506    0.0000 C   0  0  0  0  0  0  0  0  0  0  0  0
   24.0567  -17.0274    0.0000 C   0  0  0  0  0  0  0  0  0  0  0  0
   25.2469  -16.2980    0.0000 C   0  0  0  0  0  0  0  0  0  0  0  0
   27.5689  -17.7450    0.0000 C   0  0  0  0  0  0  0  0  0  0  0  0
   21.6763  -19.7345    0.0000 C   0  0  0  0  0  0  0  0  0  0  0  0
   22.8723  -17.6983    0.0000 C   0  0  0  0  0  0  0  0  0  0  0  0
   22.8490  -21.7765    0.0000 C   0  0  0  0  0  0  0  0  0  0  0  0
   26.3963  -15.6563    0.0000 C   0  0  0  0  0  0  0  0  0  0  0  0
   21.6706  -21.0938    0.0000 C   0  0  0  0  0  0  0  0  0  0  0  0
   20.4979  -19.0518    0.0000 C   0  0  0  0  0  0  0  0  0  0  0  0
   21.6822  -18.3576    0.0000 C   0  0  0  0  0  0  0  0  0  0  0  0
   25.2293  -14.9621    0.0000 N   0  0  0  0  0  0  0  0  0  0  0  0
   27.5865  -14.9912    0.0000 O   0  0  0  0  0  0  0  0  0  0  0  0
   20.4979  -21.7705    0.0000 N   0  0  0  0  0  0  0  0  0  0  0  0
   19.3252  -19.7345    0.0000 C   0  0  0  0  0  0  0  0  0  0  0  0
   24.0567  -14.1919    0.0000 C   0  0  0  0  0  0  0  0  0  0  0  0
   19.3252  -21.0938    0.0000 C   0  0  0  0  0  0  0  0  0  0  0  0
   22.9600  -13.5035    0.0000 C   0  0  0  0  0  0  0  0  0  0  0  0
   23.2924  -15.2304    0.0000 C   0  0  0  0  0  0  0  0  0  0  0  0
   24.8094  -13.0893    0.0000 C   0  0  0  0  0  0  0  0  0  0  0  0
   18.1409  -21.7705    0.0000 O   0  0  0  0  0  0  0  0  0  0  0  0
   29.4582  -12.6733    0.0000 N   0  0  0  0  0  0  0  0  0  0  0  0
   30.1741  -13.7777    0.0000 C   0  0  0  0  0  0  0  0  0  0  0  0
   29.5963  -15.0632    0.0000 C   0  0  0  0  0  0  0  0  0  0  0  0
   28.2326  -15.0448    0.0000 N   0  0  0  0  0  0  0  0  0  0  0  0
   27.4708  -14.1585    0.0000 C   0  0  0  0  0  0  0  0  0  0  0  0
   28.0566  -12.6389    0.0000 C   0  0  0  0  0  0  0  0  0  0  0  0
   27.6549  -16.4236    0.0000 C   0  0  0  0  0  0  0  0  0  0  0  0
   26.2912  -16.4518    0.0000 C   0  0  0  0  0  0  0  0  0  0  0  0
   26.1152  -14.1159    0.0000 C   0  0  0  0  0  0  0  0  0  0  0  0
   25.5294  -15.3555    0.0000 C   0  0  0  0  0  0  0  0  0  0  0  0
   27.2788  -11.5908    0.0000 O   0  0  0  0  0  0  0  0  0  0  0  0
   30.4201  -16.2432    0.0000 O   0  0  0  0  0  0  0  0  0  0  0  0
   28.4706  -17.5343    0.0000 C   0  0  0  0  0  0  0  0  0  0  0  0
   29.8722  -17.4755    0.0000 C   0  0  0  0  0  0  0  0  0  0  0  0
   30.6960  -18.6089    0.0000 C   0  0  0  0  0  0  0  0  0  0  0  0
   30.0724  -19.9725    0.0000 C   0  0  0  0  0  0  0  0  0  0  0  0
   28.6250  -19.9694    0.0000 C   0  0  0  0  0  0  0  0  0  0  0  0
   27.8471  -18.8281    0.0000 C   0  0  0  0  0  0  0  0  0  0  0  0
   30.5829  -21.1851    0.0000 O   0  0  0  0  0  0  0  0  0  0  0  0
   29.5192  -22.1306    0.0000 C   0  0  0  0  0  0  0  0  0  0  0  0
   28.3012  -21.3988    0.0000 O   0  0  0  0  0  0  0  0  0  0  0  0
   30.0900  -11.4256    0.0000 C   0  0  0  0  0  0  0  0  0  0  0  0
   24.1928  -15.8284    0.0000 C   0  0  0  0  0  0  0  0  0  0  0  0
   24.2058  -17.2380    0.0000 C   0  0  0  0  0  0  0  0  0  0  0  0
   25.5595  -17.6699    0.0000 N   0  0  0  0  0  0  0  0  0  0  0  0
   22.9827  -15.1426    0.0000 C   0  0  0  0  0  0  0  0  0  0  0  0
   21.7866  -15.8747    0.0000 C   0  0  0  0  0  0  0  0  0  0  0  0
   21.8003  -17.2924    0.0000 C   0  0  0  0  0  0  0  0  0  0  0  0
   23.0561  -17.9701    0.0000 C   0  0  0  0  0  0  0  0  0  0  0  0
  1  2  1  0
  1  3  1  0
  1  4  1  1
  2  5  1  0
  2  6  1  6
  3  7  1  0
  3  8  1  0
  3  9  1  1
  4 10  1  0
  5 11  1  0
  5 12  1  1
  6 13  1  0
  7 14  1  1
 11 15  1  0
 11 16  1  0
 11 17  1  1
 14 18  1  0
 14 19  2  0
 15 20  1  0
 16 21  2  0
 18 22  1  0
 20 23  1  0
 22 24  1  0
 22 25  1  0
 22 26  1  0
 23 27  2  0
  7 10  1  0
  8 12  1  0
 15 13  1  1
 21 23  1  0
 28 29  1  0
 29 30  1  0
 30 31  1  0
 31 32  1  0
 32 33  1  0
 28 33  1  0
 31 34  1  0
 34 35  1  0
 32 36  1  6
 37 35  2  0
 36 37  1  0
 33 38  2  0
 30 39  2  0
 34 40  1  6
 40 41  2  0
 41 42  1  0
 42 43  2  0
 43 44  1  0
 44 45  2  0
 40 45  1  0
 43 46  1  0
 46 47  1  0
 47 48  1  0
 44 48  1  0
 28 49  1  0
 37 50  1  0
 50 51  2  0
 51 52  1  0
 52 35  1  0
 50 53  1  0
 53 54  2  0
 54 55  1  0
 55 56  2  0
 51 56  1  0
M  END
