 
 
 
 34 38  0  0  0  0  0  0  0  0999 V2000
    9.6600  -16.3800    0.0000 C   0  0  0  0  0  0  0  0  0  0  0  0
    9.6600  -17.7800    0.0000 C   0  0  0  0  0  0  0  0  0  0  0  0
   10.8724  -18.4800    0.0000 C   0  0  0  0  0  0  0  0  0  0  0  0
   12.0849  -17.7800    0.0000 C   0  0  0  0  0  0  0  0  0  0  0  0
   12.0849  -16.3800    0.0000 C   0  0  0  0  0  0  0  0  0  0  0  0
   10.8724  -15.6800    0.0000 C   0  0  0  0  0  0  0  0  0  0  0  0
   13.2973  -18.4800    0.0000 N   0  0  0  0  0  0  0  0  0  0  0  0
   14.5097  -17.7800    0.0000 C   0  0  0  0  0  0  0  0  0  0  0  0
   14.5097  -16.3800    0.0000 C   0  0  0  0  0  0  0  0  0  0  0  0
   13.2973  -15.6800    0.0000 C   0  0  0  0  0  0  0  0  0  0  0  0
   15.7073  -15.6885    0.0000 C   0  0  0  0  0  0  0  0  0  0  0  0
   16.8956  -16.3745    0.0000 C   0  0  0  0  0  0  0  0  0  0  0  0
   18.1080  -15.6745    0.0000 C   0  0  0  0  0  0  0  0  0  0  0  0
   18.1080  -14.2745    0.0000 C   0  0  0  0  0  0  0  0  0  0  0  0
   16.9197  -13.5885    0.0000 C   0  0  0  0  0  0  0  0  0  0  0  0
   15.7073  -14.2885    0.0000 C   0  0  0  0  0  0  0  0  0  0  0  0
    8.4476  -15.6800    0.0000 C   0  0  0  0  0  0  0  0  0  0  0  0
    8.4476  -14.2802    0.0000 C   0  0  0  0  0  0  0  0  0  0  0  0
    7.2351  -13.5802    0.0000 C   0  0  0  0  0  0  0  0  0  0  0  0
    6.0227  -14.2802    0.0000 C   0  0  0  0  0  0  0  0  0  0  0  0
    6.0227  -15.6800    0.0000 C   0  0  0  0  0  0  0  0  0  0  0  0
    7.2351  -16.3800    0.0000 C   0  0  0  0  0  0  0  0  0  0  0  0
    7.2351  -17.7798    0.0000 O   0  0  0  0  0  0  0  0  0  0  0  0
    4.8082  -16.3812    0.0000 C   0  0  0  0  0  0  0  0  0  0  0  0
    3.5958  -17.0812    0.0000 N   0  0  0  0  0  0  0  0  0  0  0  0
   19.3392  -16.3855    0.0000 F   0  0  0  0  0  0  0  0  0  0  0  0
   16.9196  -12.1801    0.0000 F   0  0  0  0  0  0  0  0  0  0  0  0
   13.2973  -14.2800    0.0000 N   0  0  0  0  0  0  0  0  0  0  0  0
   14.5118  -13.5788    0.0000 C   0  0  0  0  0  0  0  0  0  0  0  0
   14.5118  -12.1788    0.0000 C   0  0  0  0  0  0  0  0  0  0  0  0
   13.2993  -11.4788    0.0000 C   0  0  0  0  0  0  0  0  0  0  0  0
   12.0849  -12.1800    0.0000 C   0  0  0  0  0  0  0  0  0  0  0  0
   12.0849  -13.5800    0.0000 C   0  0  0  0  0  0  0  0  0  0  0  0
   13.2993  -10.0800    0.0000 N   0  0  0  0  0  0  0  0  0  0  0  0
  1  2  2  0     0  0
  2  3  1  0     0  0
  3  4  2  0     0  0
  4  5  1  0     0  0
  5  6  2  0     0  0
  1  6  1  0     0  0
  4  7  1  0     0  0
  7  8  2  0     0  0
  8  9  1  0     0  0
  9 10  2  0     0  0
  5 10  1  0     0  0
  9 11  1  0     0  0
 11 12  2  0     0  0
 12 13  1  0     0  0
 13 14  2  0     0  0
 14 15  1  0     0  0
 15 16  2  0     0  0
 11 16  1  0     0  0
  1 17  1  0     0  0
 17 18  2  0     0  0
 18 19  1  0     0  0
 19 20  2  0     0  0
 20 21  1  0     0  0
 21 22  2  0     0  0
 17 22  1  0     0  0
 22 23  1  0     0  0
 21 24  1  0     0  0
 24 25  3  0     0  0
 13 26  1  0     0  0
 15 27  1  0     0  0
 10 28  1  0     0  0
 28 29  1  0     0  0
 29 30  1  0     0  0
 30 31  1  0     0  0
 31 32  1  0     0  0
 32 33  1  0     0  0
 28 33  1  0     0  0
 31 34  1  0     0  0
M  END
