 
 
 
 40 44  0  0  0  0  0  0  0  0999 V2000
   13.1982  -15.2450    0.0000 C   0  0  0  0  0  0  0  0  0  0  0  0
   13.1982  -16.6498    0.0000 N   0  0  0  0  0  0  0  0  0  0  0  0
   14.4147  -17.3522    0.0000 C   0  0  0  0  0  0  0  0  0  0  0  0
   15.6313  -16.6498    0.0000 C   0  0  0  0  0  0  0  0  0  0  0  0
   15.6313  -15.2450    0.0000 C   0  0  0  0  0  0  0  0  0  0  0  0
   14.4147  -14.5427    0.0000 N   0  0  0  0  0  0  0  0  0  0  0  0
   16.8478  -17.3522    0.0000 C   0  0  0  0  0  0  0  0  0  0  0  0
   18.0643  -16.6498    0.0000 C   0  0  0  0  0  0  0  0  0  0  0  0
   18.0643  -15.2450    0.0000 C   0  0  0  0  0  0  0  0  0  0  0  0
   16.8478  -14.5427    0.0000 C   0  0  0  0  0  0  0  0  0  0  0  0
   19.2660  -14.5512    0.0000 O   0  0  0  0  0  0  0  0  0  0  0  0
   19.2660  -17.3436    0.0000 N   0  0  0  0  0  0  0  0  0  0  0  0
   14.4147  -18.7567    0.0000 N   0  0  0  0  0  0  0  0  0  0  0  0
   15.6144  -19.4494    0.0000 C   0  0  0  0  0  0  0  0  0  0  0  0
   15.6145  -20.8637    0.0000 C   0  0  0  0  0  0  0  0  0  0  0  0
   16.8311  -21.5660    0.0000 C   0  0  0  0  0  0  0  0  0  0  0  0
   18.0476  -20.8635    0.0000 C   0  0  0  0  0  0  0  0  0  0  0  0
   18.0475  -19.4492    0.0000 C   0  0  0  0  0  0  0  0  0  0  0  0
   16.8309  -18.7470    0.0000 C   0  0  0  0  0  0  0  0  0  0  0  0
   16.8312  -22.9710    0.0000 Cl  0  0  0  0  0  0  0  0  0  0  0  0
   19.2621  -21.5647    0.0000 O   0  0  0  0  0  0  0  0  0  0  0  0
   20.4601  -20.8726    0.0000 C   0  0  0  0  0  0  0  0  0  0  0  0
   21.6524  -21.5609    0.0000 C   0  0  0  0  0  0  0  0  0  0  0  0
   21.6526  -22.9709    0.0000 N   0  0  0  0  0  0  0  0  0  0  0  0
   22.8693  -23.6731    0.0000 C   0  0  0  0  0  0  0  0  0  0  0  0
   24.0857  -22.9705    0.0000 C   0  0  0  0  0  0  0  0  0  0  0  0
   24.0855  -21.5605    0.0000 C   0  0  0  0  0  0  0  0  0  0  0  0
   22.8688  -20.8583    0.0000 C   0  0  0  0  0  0  0  0  0  0  0  0
   20.4583  -16.6553    0.0000 C   0  0  0  0  0  0  0  0  0  0  0  0
   21.6532  -17.3452    0.0000 C   0  0  0  0  0  0  0  0  0  0  0  0
   22.8468  -16.6561    0.0000 C   0  0  0  0  0  0  0  0  0  0  0  0
   20.4584  -15.2452    0.0000 O   0  0  0  0  0  0  0  0  0  0  0  0
   19.2660  -13.1465    0.0000 C   0  0  0  0  0  0  0  0  0  0  0  0
   20.4653  -12.4536    0.0000 C   0  0  0  0  0  0  0  0  0  0  0  0
   21.6614  -13.1442    0.0000 N   0  0  0  0  0  0  0  0  0  0  0  0
   21.6617  -14.5596    0.0000 C   0  0  0  0  0  0  0  0  0  0  0  0
   22.8742  -15.2594    0.0000 C   0  0  0  0  0  0  0  0  0  0  0  0
   24.0865  -14.5592    0.0000 O   0  0  0  0  0  0  0  0  0  0  0  0
   24.0863  -13.1438    0.0000 C   0  0  0  0  0  0  0  0  0  0  0  0
   22.8737  -12.4440    0.0000 C   0  0  0  0  0  0  0  0  0  0  0  0
  1  2  2  0     0  0
  2  3  1  0     0  0
  3  4  2  0     0  0
  4  5  1  0     0  0
  5  6  2  0     0  0
  1  6  1  0     0  0
  4  7  1  0     0  0
  7  8  2  0     0  0
  8  9  1  0     0  0
  9 10  2  0     0  0
  5 10  1  0     0  0
  9 11  1  0     0  0
  8 12  1  0     0  0
  3 13  1  0     0  0
 13 14  1  0     0  0
 14 15  2  0     0  0
 15 16  1  0     0  0
 16 17  2  0     0  0
 17 18  1  0     0  0
 18 19  2  0     0  0
 14 19  1  0     0  0
 16 20  1  0     0  0
 17 21  1  0     0  0
 21 22  1  0     0  0
 22 23  1  0     0  0
 23 24  2  0     0  0
 24 25  1  0     0  0
 25 26  2  0     0  0
 26 27  1  0     0  0
 27 28  2  0     0  0
 23 28  1  0     0  0
 12 29  1  0     0  0
 29 30  1  0     0  0
 30 31  2  0     0  0
 29 32  2  0     0  0
 11 33  1  0     0  0
 33 34  1  0     0  0
 34 35  1  0     0  0
 35 36  1  0     0  0
 36 37  1  0     0  0
 37 38  1  0     0  0
 38 39  1  0     0  0
 39 40  1  0     0  0
 35 40  1  0     0  0
M  END
