 
 
 
 20 21  0  0  0  0  0  0  0  0999 V2000
    5.8800  -12.9500    0.0000 C   0  0  0  0  0  0  0  0  0  0  0  0
    5.8800  -14.3500    0.0000 C   0  0  0  0  0  0  0  0  0  0  0  0
    7.0924  -15.0500    0.0000 C   0  0  0  0  0  0  0  0  0  0  0  0
    8.3049  -14.3500    0.0000 C   0  0  0  0  0  0  0  0  0  0  0  0
    8.3049  -12.9500    0.0000 C   0  0  0  0  0  0  0  0  0  0  0  0
    7.0924  -12.2500    0.0000 C   0  0  0  0  0  0  0  0  0  0  0  0
    9.5360  -12.2390    0.0000 N   0  0  0  0  0  0  0  0  0  0  0  0
   10.7412  -12.9347    0.0000 C   0  0  0  0  0  0  0  0  0  0  0  0
   10.7416  -14.3496    0.0000 C   0  0  0  0  0  0  0  0  0  0  0  0
   11.9542  -15.0493    0.0000 C   0  0  0  0  0  0  0  0  0  0  0  0
   13.1665  -14.3489    0.0000 C   0  0  0  0  0  0  0  0  0  0  0  0
   13.1660  -12.9339    0.0000 C   0  0  0  0  0  0  0  0  0  0  0  0
   11.9534  -12.2343    0.0000 C   0  0  0  0  0  0  0  0  0  0  0  0
    7.0924  -10.8502    0.0000 C   0  0  0  0  0  0  0  0  0  0  0  0
    5.8632  -10.1403    0.0000 O   0  0  0  0  0  0  0  0  0  0  0  0
    8.2880  -10.1598    0.0000 O   0  0  0  0  0  0  0  0  0  0  0  0
    9.5360  -15.0610    0.0000 F   0  0  0  0  0  0  0  0  0  0  0  0
    7.0924  -16.4498    0.0000 F   0  0  0  0  0  0  0  0  0  0  0  0
   14.3747  -15.0460    0.0000 I   0  0  0  0  0  0  0  0  0  0  0  0
   11.9532  -10.8501    0.0000 Cl  0  0  0  0  0  0  0  0  0  0  0  0
  1  2  2  0     0  0
  2  3  1  0     0  0
  3  4  2  0     0  0
  4  5  1  0     0  0
  5  6  2  0     0  0
  1  6  1  0     0  0
  5  7  1  0     0  0
  7  8  1  0     0  0
  8  9  2  0     0  0
  9 10  1  0     0  0
 10 11  2  0     0  0
 11 12  1  0     0  0
 12 13  2  0     0  0
  8 13  1  0     0  0
  6 14  1  0     0  0
 14 15  2  0     0  0
 14 16  1  0     0  0
  4 17  1  0     0  0
  3 18  1  0     0  0
 11 19  1  0     0  0
 13 20  1  0     0  0
M  END
