 
 
 
 19 20  0  0  1  0  0  0  0  0999 V2000
   13.8210  -16.3436    0.0000 C   0  0  0  0  0  0  0  0  0  0  0  0
   13.8210  -17.7490    0.0000 C   0  0  0  0  0  0  0  0  0  0  0  0
   15.0381  -18.4517    0.0000 C   0  0  0  0  0  0  0  0  0  0  0  0
   16.2553  -17.7490    0.0000 C   0  0  0  0  0  0  0  0  0  0  0  0
   16.2553  -16.3436    0.0000 C   0  0  0  0  0  0  0  0  0  0  0  0
   15.0381  -15.6408    0.0000 C   0  0  0  0  0  0  0  0  0  0  0  0
   17.4724  -18.4517    0.0000 C   0  0  0  0  0  0  0  0  0  0  0  0
   18.6895  -17.7490    0.0000 C   0  0  0  0  0  0  0  0  0  0  0  0
   18.6895  -16.3436    0.0000 B   0  0  0  0  0  0  0  0  0  0  0  0
   17.4724  -15.6408    0.0000 O   0  0  0  0  0  0  0  0  0  0  0  0
   15.0381  -14.2356    0.0000 C   0  0  0  0  0  0  0  0  0  0  0  0
   13.8041  -13.5229    0.0000 O   0  0  0  0  0  0  0  0  0  0  0  0
   16.2383  -13.5425    0.0000 O   0  0  0  0  0  0  0  0  0  0  0  0
   19.8918  -15.6494    0.0000 O   0  0  0  0  0  0  0  0  0  0  0  0
   19.8918  -18.4432    0.0000 N   0  0  0  0  0  0  0  0  0  0  0  0
   21.0847  -17.7545    0.0000 C   0  0  0  0  0  0  0  0  0  0  0  0
   22.2801  -18.4448    0.0000 C   0  0  0  0  0  0  0  0  0  0  0  0
   23.4743  -17.7553    0.0000 C   0  0  0  0  0  0  0  0  0  0  0  0
   21.0848  -16.3438    0.0000 O   0  0  0  0  0  0  0  0  0  0  0  0
  1  2  2  0     0  0
  2  3  1  0     0  0
  3  4  2  0     0  0
  4  5  1  0     0  0
  5  6  2  0     0  0
  1  6  1  0     0  0
  4  7  1  0     0  0
  7  8  1  0     0  0
  8  9  1  0     0  0
  9 10  1  0     0  0
  5 10  1  0     0  0
  6 11  1  0     0  0
 11 12  1  0     0  0
 11 13  2  0     0  0
  9 14  1  0     0  0
  8 15  1  1     0  0
 15 16  1  0     0  0
 16 17  1  0     0  0
 17 18  1  0     0  0
 16 19  2  0     0  0
M  END
