 
 
 
 34 35  0  0  1  0  0  0  0  0999 V2000
   16.8700  -13.0900    0.0000 C   0  0  0  0  0  0  0  0  0  0  0  0
   16.8700  -14.4900    0.0000 C   0  0  0  0  0  0  0  0  0  0  0  0
   18.0824  -15.1900    0.0000 C   0  0  0  0  0  0  0  0  0  0  0  0
   19.2949  -14.4900    0.0000 C   0  0  0  0  0  0  0  0  0  0  0  0
   19.2949  -13.0900    0.0000 C   0  0  0  0  0  0  0  0  0  0  0  0
   18.0824  -12.3900    0.0000 C   0  0  0  0  0  0  0  0  0  0  0  0
   15.6576  -12.3900    0.0000 O   0  0  0  0  0  0  0  0  0  0  0  0
   18.0824  -10.9902    0.0000 Cl  0  0  0  0  0  0  0  0  0  0  0  0
   15.6576  -15.1900    0.0000 Cl  0  0  0  0  0  0  0  0  0  0  0  0
   20.5260  -15.2010    0.0000 C   0  0  0  0  0  0  0  0  0  0  0  0
   21.7312  -14.5053    0.0000 C   0  0  0  0  0  0  0  0  0  0  0  0
   22.9135  -15.1881    0.0000 C   0  0  0  0  0  0  0  0  0  0  0  0
   24.1075  -14.4988    0.0000 O   0  0  0  0  0  0  0  0  0  0  0  0
   22.9135  -16.5898    0.0000 O   0  0  0  0  0  0  0  0  0  0  0  0
   21.7316  -13.0904    0.0000 N   0  0  0  0  0  0  0  0  0  0  0  0
   14.4621  -13.0804    0.0000 C   0  0  0  0  0  0  0  0  0  0  0  0
   13.2747  -12.3949    0.0000 C   0  0  0  0  0  0  0  0  0  0  0  0
   13.2746  -10.9902    0.0000 C   0  0  0  0  0  0  0  0  0  0  0  0
   12.0621  -10.2903    0.0000 C   0  0  0  0  0  0  0  0  0  0  0  0
   10.8497  -10.9904    0.0000 C   0  0  0  0  0  0  0  0  0  0  0  0
   10.8499  -12.3951    0.0000 C   0  0  0  0  0  0  0  0  0  0  0  0
   12.0624  -13.0950    0.0000 C   0  0  0  0  0  0  0  0  0  0  0  0
   12.0620   -8.8902    0.0000 N   0  0  0  0  0  0  0  0  0  0  0  0
    9.8095  -13.3320    0.0000 N   0  0  0  0  0  0  0  0  0  0  0  0
   10.3791  -14.6109    0.0000 C   0  0  0  0  0  0  0  0  0  0  0  0
   11.7714  -14.4645    0.0000 O   0  0  0  0  0  0  0  0  0  0  0  0
    9.6663  -15.8460    0.0000 C   0  0  0  0  0  0  0  0  0  0  0  0
    8.2602  -15.8464    0.0000 C   0  0  0  0  0  0  0  0  0  0  0  0
    7.5606  -17.0590    0.0000 C   0  0  0  0  0  0  0  0  0  0  0  0
    8.2609  -18.2713    0.0000 C   0  0  0  0  0  0  0  0  0  0  0  0
    9.6669  -18.2709    0.0000 C   0  0  0  0  0  0  0  0  0  0  0  0
   10.3666  -17.0583    0.0000 C   0  0  0  0  0  0  0  0  0  0  0  0
   15.8900  -18.0600    0.0000 Cl  0  0  0  0  0  0  0  0  0  0  0  0
   20.2300  -17.9900    0.0000 O   0  0  0  0  0  0  0  0  0  0  0  0
  1  2  2  0     0  0
  2  3  1  0     0  0
  3  4  2  0     0  0
  4  5  1  0     0  0
  5  6  2  0     0  0
  1  6  1  0     0  0
  1  7  1  0     0  0
  6  8  1  0     0  0
  2  9  1  0     0  0
  4 10  1  0     0  0
 10 11  1  0     0  0
 11 12  1  0     0  0
 12 13  1  0     0  0
 12 14  2  0     0  0
 11 15  1  6     0  0
  7 16  1  0     0  0
 16 17  1  0     0  0
 17 18  2  0     0  0
 18 19  1  0     0  0
 19 20  2  0     0  0
 20 21  1  0     0  0
 21 22  2  0     0  0
 17 22  1  0     0  0
 19 23  1  0     0  0
 21 24  1  0     0  0
 24 25  2  0     0  0
 25 26  1  0     0  0
 22 26  1  0     0  0
 25 27  1  0     0  0
 27 28  2  0     0  0
 28 29  1  0     0  0
 29 30  2  0     0  0
 30 31  1  0     0  0
 31 32  2  0     0  0
 27 32  1  0     0  0
M  END
