 
 
 
 47 50  0  0  1  0  0  0  0  0999 V2000
   19.7426  -14.6841    0.0000 C   0  0  0  0  0  0  0  0  0  0  0  0
   19.7426  -13.2789    0.0000 C   0  0  0  0  0  0  0  0  0  0  0  0
   21.0775  -12.8574    0.0000 C   0  0  0  0  0  0  0  0  0  0  0  0
   21.9206  -13.9815    0.0000 N   0  0  0  0  0  0  0  0  0  0  0  0
   21.0775  -15.1056    0.0000 C   0  0  0  0  0  0  0  0  0  0  0  0
   18.4077  -15.1056    0.0000 N   0  0  0  0  0  0  0  0  0  0  0  0
   17.5646  -13.9815    0.0000 C   0  0  0  0  0  0  0  0  0  0  0  0
   18.4077  -12.8574    0.0000 N   0  0  0  0  0  0  0  0  0  0  0  0
   16.1595  -13.9815    0.0000 C   0  0  0  0  0  0  0  0  0  0  0  0
   15.4569  -15.1759    0.0000 C   0  0  0  0  0  0  0  0  0  0  0  0
   14.0518  -15.1759    0.0000 N   0  0  0  0  0  0  0  0  0  0  0  0
   13.2789  -13.9815    0.0000 C   0  0  0  0  0  0  0  0  0  0  0  0
   14.0518  -12.7871    0.0000 N   0  0  0  0  0  0  0  0  0  0  0  0
   15.4569  -12.7871    0.0000 C   0  0  0  0  0  0  0  0  0  0  0  0
   11.8738  -13.9815    0.0000 O   0  0  0  0  0  0  0  0  0  0  0  0
   11.1712  -15.1759    0.0000 C   0  0  0  0  0  0  0  0  0  0  0  0
   16.1595  -11.5927    0.0000 O   0  0  0  0  0  0  0  0  0  0  0  0
   17.5646  -11.5927    0.0000 C   0  0  0  0  0  0  0  0  0  0  0  0
   17.9862  -16.4405    0.0000 C   0  0  0  0  0  0  0  0  0  0  0  0
   16.5810  -16.7215    0.0000 C   0  0  0  0  0  0  0  0  0  0  0  0
   18.8995  -17.4944    0.0000 C   0  0  0  0  0  0  0  0  0  0  0  0
   23.3257  -13.9815    0.0000 C   0  0  0  0  0  0  0  0  0  0  0  0
   21.4990  -11.5225    0.0000 O   0  0  0  0  0  0  0  0  0  0  0  0
   24.0283  -12.7871    0.0000 C   0  0  0  0  0  0  0  0  0  0  0  0
   25.4335  -12.7871    0.0000 N   0  0  0  0  0  0  0  0  0  0  0  0
   26.1360  -13.9815    0.0000 C   0  0  0  0  0  0  0  0  0  0  0  0
   25.4335  -15.1759    0.0000 C   0  0  0  0  0  0  0  0  0  0  0  0
   24.0283  -15.1759    0.0000 C   0  0  0  0  0  0  0  0  0  0  0  0
   21.4990  -16.4405    0.0000 C   0  0  0  0  0  0  0  0  0  0  0  0
   22.9042  -16.7215    0.0000 C   0  0  0  0  0  0  0  0  0  0  0  0
   23.3257  -18.0564    0.0000 C   0  0  0  0  0  0  0  0  0  0  0  0
   22.3421  -19.1103    0.0000 C   0  0  0  0  0  0  0  0  0  0  0  0
   21.0072  -18.8293    0.0000 C   0  0  0  0  0  0  0  0  0  0  0  0
   20.5857  -17.4944    0.0000 C   0  0  0  0  0  0  0  0  0  0  0  0
   22.7637  -20.4452    0.0000 Cl  0  0  0  0  0  0  0  0  0  0  0  0
   23.3257  -11.5927    0.0000 O   0  0  0  0  0  0  0  0  0  0  0  0
   26.1360  -11.5927    0.0000 C   0  0  0  0  0  0  0  0  0  0  0  0
   26.1360  -16.3702    0.0000 Cl  0  0  0  0  0  0  0  0  0  0  0  0
   20.3749  -16.3000    0.0000 H   0  0  0  0  0  0  0  0  0  0  0  0
   28.5600  -18.4100    0.0000 C   0  0  0  0  0  0  0  0  0  0  0  0
   29.7724  -19.1100    0.0000 C   0  0  0  0  0  0  0  0  0  0  0  0
   27.3476  -19.1100    0.0000 O   0  0  0  0  0  0  0  0  0  0  0  0
   28.5600  -17.0100    0.0000 O   0  0  0  0  0  0  0  0  0  0  0  0
   30.9679  -18.4196    0.0000 C   0  0  0  0  0  0  0  0  0  0  0  0
   32.1553  -19.1051    0.0000 C   0  0  0  0  0  0  0  0  0  0  0  0
   33.3465  -18.4171    0.0000 O   0  0  0  0  0  0  0  0  0  0  0  0
   32.1555  -20.5098    0.0000 O   0  0  0  0  0  0  0  0  0  0  0  0
  1  2  2  0     0  0
  2  3  1  0     0  0
  3  4  1  0     0  0
  4  5  1  0     0  0
  1  5  1  0     0  0
  1  6  1  0     0  0
  6  7  1  0     0  0
  7  8  2  0     0  0
  2  8  1  0     0  0
  7  9  1  0     0  0
  9 10  2  0     0  0
 10 11  1  0     0  0
 11 12  2  0     0  0
 12 13  1  0     0  0
 13 14  2  0     0  0
  9 14  1  0     0  0
 12 15  1  0     0  0
 15 16  1  0     0  0
 14 17  1  0     0  0
 17 18  1  0     0  0
  6 19  1  0     0  0
 19 20  1  0     0  0
 19 21  1  0     0  0
  4 22  1  0     0  0
  3 23  2  0     0  0
 22 24  1  0     0  0
 24 25  1  0     0  0
 25 26  1  0     0  0
 26 27  2  0     0  0
 27 28  1  0     0  0
 22 28  2  0     0  0
  5 29  1  1     0  0
 29 30  2  0     0  0
 30 31  1  0     0  0
 31 32  2  0     0  0
 32 33  1  0     0  0
 33 34  2  0     0  0
 29 34  1  0     0  0
 32 35  1  0     0  0
 24 36  2  0     0  0
 25 37  1  0     0  0
 27 38  1  0     0  0
  5 39  1  6     0  0
 40 41  1  0     0  0
 40 42  1  0     0  0
 40 43  2  0     0  0
 41 44  1  0     0  0
 44 45  1  0     0  0
 45 46  1  0     0  0
 45 47  2  0     0  0
M  END
