 
 
 
 28 31  0  0  0  0  0  0  0  0999 V2000
    8.0500  -16.7300    0.0000 C   0  0  0  0  0  0  0  0  0  0  0  0
    8.0500  -18.1300    0.0000 C   0  0  0  0  0  0  0  0  0  0  0  0
    9.2400  -18.8300    0.0000 N   0  0  0  0  0  0  0  0  0  0  0  0
   10.5000  -18.1300    0.0000 C   0  0  0  0  0  0  0  0  0  0  0  0
   10.5000  -16.7300    0.0000 C   0  0  0  0  0  0  0  0  0  0  0  0
    9.2400  -16.0300    0.0000 C   0  0  0  0  0  0  0  0  0  0  0  0
   11.8300  -18.5500    0.0000 C   0  0  0  0  0  0  0  0  0  0  0  0
   12.6000  -17.4300    0.0000 N   0  0  0  0  0  0  0  0  0  0  0  0
   11.8300  -16.3100    0.0000 C   0  0  0  0  0  0  0  0  0  0  0  0
   14.0000  -17.4300    0.0000 C   0  0  0  0  0  0  0  0  0  0  0  0
   14.7000  -18.6200    0.0000 C   0  0  0  0  0  0  0  0  0  0  0  0
   16.1000  -18.6200    0.0000 C   0  0  0  0  0  0  0  0  0  0  0  0
   14.7000  -16.2400    0.0000 O   0  0  0  0  0  0  0  0  0  0  0  0
   17.0800  -19.6000    0.0000 C   0  0  0  0  0  0  0  0  0  0  0  0
   18.0600  -18.6200    0.0000 N   0  0  0  0  0  0  0  0  0  0  0  0
   17.0800  -17.6400    0.0000 C   0  0  0  0  0  0  0  0  0  0  0  0
   19.4600  -18.6200    0.0000 C   0  0  0  0  0  0  0  0  0  0  0  0
   20.1600  -19.8100    0.0000 C   0  0  0  0  0  0  0  0  0  0  0  0
   21.5600  -19.8100    0.0000 C   0  0  0  0  0  0  0  0  0  0  0  0
   22.2600  -18.6200    0.0000 N   0  0  0  0  0  0  0  0  0  0  0  0
   21.5600  -17.4300    0.0000 C   0  0  0  0  0  0  0  0  0  0  0  0
   20.1600  -17.4300    0.0000 C   0  0  0  0  0  0  0  0  0  0  0  0
   22.2600  -16.2400    0.0000 C   0  0  0  0  0  0  0  0  0  0  0  0
   22.9600  -14.9800    0.0000 F   0  0  0  0  0  0  0  0  0  0  0  0
   21.0700  -15.5400    0.0000 F   0  0  0  0  0  0  0  0  0  0  0  0
   23.4500  -16.9400    0.0000 F   0  0  0  0  0  0  0  0  0  0  0  0
    6.8600  -18.8300    0.0000 C   0  0  0  0  0  0  0  0  0  0  0  0
    9.2400  -14.6300    0.0000 C   0  0  0  0  0  0  0  0  0  0  0  0
  1  2  2  0     0  0
  2  3  1  0     0  0
  3  4  2  0     0  0
  4  5  1  0     0  0
  5  6  2  0     0  0
  1  6  1  0     0  0
  4  7  1  0     0  0
  7  8  1  0     0  0
  8  9  1  0     0  0
  5  9  1  0     0  0
  8 10  1  0     0  0
 10 11  1  0     0  0
 11 12  1  0     0  0
 10 13  2  0     0  0
 12 14  1  0     0  0
 14 15  1  0     0  0
 15 16  1  0     0  0
 12 16  1  0     0  0
 15 17  1  0     0  0
 17 18  2  0     0  0
 18 19  1  0     0  0
 19 20  2  0     0  0
 20 21  1  0     0  0
 21 22  2  0     0  0
 17 22  1  0     0  0
 21 23  1  0     0  0
 23 24  1  0     0  0
 23 25  1  0     0  0
 23 26  1  0     0  0
  2 27  1  0     0  0
  6 28  1  0     0  0
M  END
