 
 
 
 28 30  0  0  0  0  0  0  0  0999 V2000
   22.3020  -14.9612    0.0000 C   0  0  0  0  0  0  0  0  0  0  0  0
   22.3020  -16.3595    0.0000 C   0  0  0  0  0  0  0  0  0  0  0  0
   23.4905  -17.0586    0.0000 C   0  0  0  0  0  0  0  0  0  0  0  0
   24.7489  -16.3595    0.0000 C   0  0  0  0  0  0  0  0  0  0  0  0
   24.7489  -14.9612    0.0000 C   0  0  0  0  0  0  0  0  0  0  0  0
   23.4905  -14.1922    0.0000 C   0  0  0  0  0  0  0  0  0  0  0  0
   23.7702  -18.3869    0.0000 C   0  0  0  0  0  0  0  0  0  0  0  0
   25.1684  -18.5267    0.0000 C   0  0  0  0  0  0  0  0  0  0  0  0
   25.7976  -17.2683    0.0000 C   0  0  0  0  0  0  0  0  0  0  0  0
   23.2109  -12.8639    0.0000 C   0  0  0  0  0  0  0  0  0  0  0  0
   21.8126  -12.7240    0.0000 C   0  0  0  0  0  0  0  0  0  0  0  0
   21.2533  -13.9824    0.0000 C   0  0  0  0  0  0  0  0  0  0  0  0
   21.1135  -17.0586    0.0000 N   0  0  0  0  0  0  0  0  0  0  0  0
   19.8551  -16.3595    0.0000 C   0  0  0  0  0  0  0  0  0  0  0  0
   18.6666  -17.0586    0.0000 N   0  5  0  0  0  0  0  0  0  0  0  0
   19.8551  -14.9612    0.0000 O   0  0  0  0  0  0  0  0  0  0  0  0
   17.4781  -16.3595    0.0000 S   0  0  0  0  0  0  0  0  0  0  0  0
   16.2896  -17.0586    0.0000 C   0  0  0  0  0  0  0  0  0  0  0  0
   15.1010  -16.3595    0.0000 C   0  0  0  0  0  0  0  0  0  0  0  0
   13.9125  -17.0586    0.0000 C   0  0  0  0  0  0  0  0  0  0  0  0
   13.9125  -18.4568    0.0000 N   0  0  0  0  0  0  0  0  0  0  0  0
   15.1010  -19.1560    0.0000 C   0  0  0  0  0  0  0  0  0  0  0  0
   16.2896  -18.4568    0.0000 C   0  0  0  0  0  0  0  0  0  0  0  0
   12.6541  -19.1560    0.0000 C   0  0  0  0  0  0  0  0  0  0  0  0
   11.4656  -18.4568    0.0000 C   0  0  0  0  0  0  0  0  0  0  0  0
   16.7789  -15.1010    0.0000 O   0  0  0  0  0  0  0  0  0  0  0  0
   18.1772  -15.1010    0.0000 O   0  0  0  0  0  0  0  0  0  0  0  0
   18.6900  -19.3200    0.0000 K   0  3  0  0  0  0  0  0  0  0  0  0
  1  2  2  0     0  0
  2  3  1  0     0  0
  3  4  2  0     0  0
  4  5  1  0     0  0
  5  6  2  0     0  0
  1  6  1  0     0  0
  3  7  1  0     0  0
  7  8  1  0     0  0
  8  9  1  0     0  0
  4  9  1  0     0  0
  6 10  1  0     0  0
 10 11  1  0     0  0
 11 12  1  0     0  0
  1 12  1  0     0  0
  2 13  1  0     0  0
 13 14  1  0     0  0
 14 15  1  0     0  0
 14 16  2  0     0  0
 15 17  1  0     0  0
 17 18  1  0     0  0
 18 19  1  0     0  0
 19 20  1  0     0  0
 20 21  1  0     0  0
 21 22  1  0     0  0
 22 23  1  0     0  0
 18 23  1  0     0  0
 21 24  1  0     0  0
 24 25  1  0     0  0
 17 26  2  0     0  0
 17 27  2  0     0  0
M  CHG  2  15  -1  28   1
M  END
