 
 
 
 36 38  0  0  1  0  0  0  0  0999 V2000
   11.9083  -18.3527    0.0000 C   0  0  1  0  0  0  0  0  0  0  0  0
   10.9276  -17.3720    0.0000 C   0  0  0  0  0  0  0  0  0  0  0  0
    9.6667  -18.0025    0.0000 O   0  0  0  0  0  0  0  0  0  0  0  0
    9.8769  -19.3334    0.0000 C   0  0  3  0  0  0  0  0  0  0  0  0
   11.2778  -19.5435    0.0000 O   0  0  0  0  0  0  0  0  0  0  0  0
    9.8769  -20.7344    0.0000 C   0  0  0  0  0  0  0  0  0  0  0  0
    8.4759  -19.3334    0.0000 C   0  0  0  0  0  0  0  0  0  0  0  0
   19.1934  -15.5508    0.0000 C   0  0  0  0  0  0  0  0  0  0  0  0
   19.1934  -14.1498    0.0000 C   0  0  0  0  0  0  0  0  0  0  0  0
   17.9325  -16.2513    0.0000 C   0  0  0  0  0  0  0  0  0  0  0  0
   17.9325  -13.4493    0.0000 C   0  0  0  0  0  0  0  0  0  0  0  0
   16.7416  -15.5508    0.0000 C   0  0  0  0  0  0  0  0  0  0  0  0
   16.7416  -14.1498    0.0000 C   0  0  0  0  0  0  0  0  0  0  0  0
   17.9325  -12.0483    0.0000 O   0  0  0  0  0  0  0  0  0  0  0  0
   19.1934  -11.3478    0.0000 C   0  0  0  0  0  0  0  0  0  0  0  0
   20.3842  -12.0483    0.0000 C   0  0  2  0  0  0  0  0  0  0  0  0
   21.5750  -11.3478    0.0000 C   0  0  0  0  0  0  0  0  0  0  0  0
   22.8359  -12.0483    0.0000 N   0  0  0  0  0  0  0  0  0  0  0  0
   24.0267  -11.3478    0.0000 C   0  0  0  0  0  0  0  0  0  0  0  0
   25.2175  -12.0483    0.0000 C   0  0  0  0  0  0  0  0  0  0  0  0
   20.3842  -13.4493    0.0000 O   0  0  0  0  0  0  0  0  0  0  0  0
   26.4084  -11.3478    0.0000 N   0  0  0  0  0  0  0  0  0  0  0  0
   27.6692  -12.0483    0.0000 C   0  0  0  0  0  0  0  0  0  0  0  0
   28.8601  -11.3478    0.0000 O   0  0  0  0  0  0  0  0  0  0  0  0
   27.6692  -13.4493    0.0000 N   0  0  3  0  0  0  0  0  0  0  0  0
   17.9325  -17.6522    0.0000 C   0  0  0  0  0  0  0  0  0  0  0  0
   26.4084  -14.1498    0.0000 C   0  0  0  0  0  0  0  0  0  0  0  0
   26.4084  -15.5508    0.0000 C   0  0  0  0  0  0  0  0  0  0  0  0
   27.6692  -16.2513    0.0000 O   0  0  0  0  0  0  0  0  0  0  0  0
   28.8601  -15.5508    0.0000 C   0  0  0  0  0  0  0  0  0  0  0  0
   28.8601  -14.1498    0.0000 C   0  0  0  0  0  0  0  0  0  0  0  0
   16.7416  -18.3527    0.0000 C   0  0  0  0  0  0  0  0  0  0  0  0
   15.5508  -17.6522    0.0000 C   0  0  0  0  0  0  0  0  0  0  0  0
   14.2899  -18.3527    0.0000 O   0  0  0  0  0  0  0  0  0  0  0  0
   13.0991  -17.6522    0.0000 C   0  0  0  0  0  0  0  0  0  0  0  0
   15.5508  -16.2513    0.0000 O   0  0  0  0  0  0  0  0  0  0  0  0
  3  4  1  0     0  0
  4  5  1  0     0  0
  5  1  1  0     0  0
 18 19  1  0     0  0
 12 13  1  0     0  0
 19 20  1  0     0  0
 20 22  1  0     0  0
 16 21  1  6     0  0
 11 14  1  0     0  0
  8  9  2  0     0  0
 14 15  1  0     0  0
 22 23  1  0     0  0
 23 24  2  0     0  0
  8 10  1  0     0  0
 23 25  1  0     0  0
 15 16  1  0     0  0
 10 26  1  0     0  0
  9 11  1  0     0  0
 16 17  1  0     0  0
 10 12  2  0     0  0
 17 18  1  0     0  0
 11 13  2  0     0  0
 25 27  1  0     0  0
 27 28  1  0     0  0
 28 29  1  0     0  0
 29 30  1  0     0  0
 30 31  1  0     0  0
 31 25  1  0     0  0
  4  6  1  0     0  0
 26 32  1  0     0  0
 32 33  1  0     0  0
  4  7  1  0     0  0
 33 34  1  0     0  0
  1  2  1  0     0  0
 34 35  1  0     0  0
  2  3  1  0     0  0
 33 36  2  0     0  0
  1 35  1  1     0  0
M  END
