 
     RDKit          2D

 46 48  0  0  0  0  0  0  0  0999 V2000
   23.9641  -17.9834    0.0000 C   0  0  0  0  0  0  0  0  0  0  0  0
   25.3657  -17.9834    0.0000 C   0  0  0  0  0  0  0  0  0  0  0  0
   23.1231  -16.8622    0.0000 N   0  0  0  0  0  0  0  0  0  0  0  0
   21.8150  -17.2826    0.0000 N   0  0  0  0  0  0  0  0  0  0  0  0
   21.8150  -18.6842    0.0000 C   0  0  0  0  0  0  0  0  0  0  0  0
   23.1231  -19.1047    0.0000 C   0  0  0  0  0  0  0  0  0  0  0  0
   25.3657  -19.3850    0.0000 F   0  0  0  0  0  0  0  0  0  0  0  0
   26.7672  -17.9834    0.0000 F   0  0  0  0  0  0  0  0  0  0  0  0
   25.3657  -16.5819    0.0000 F   0  0  0  0  0  0  0  0  0  0  0  0
   18.1709  -15.1803    0.0000 C   0  0  0  0  0  0  0  0  0  0  0  0
   18.1709  -16.5819    0.0000 C   0  0  0  0  0  0  0  0  0  0  0  0
   19.3856  -17.2826    0.0000 C   0  0  0  0  0  0  0  0  0  0  0  0
   20.6003  -16.5819    0.0000 C   0  0  0  0  0  0  0  0  0  0  0  0
   20.6003  -15.1803    0.0000 C   0  0  0  0  0  0  0  0  0  0  0  0
   19.3856  -14.4795    0.0000 C   0  0  0  0  0  0  0  0  0  0  0  0
   18.1709  -19.3850    0.0000 C   0  0  0  0  0  0  0  0  0  0  0  0
   18.1709  -20.7866    0.0000 C   0  0  0  0  0  0  0  0  0  0  0  0
   19.3856  -21.4874    0.0000 C   0  0  0  0  0  0  0  0  0  0  0  0
   20.6003  -20.7866    0.0000 C   0  0  0  0  0  0  0  0  0  0  0  0
   20.6003  -19.3850    0.0000 C   0  0  0  0  0  0  0  0  0  0  0  0
   19.3856  -18.6842    0.0000 C   0  0  0  0  0  0  0  0  0  0  0  0
   16.9572  -21.4876    0.0000 C   0  0  0  0  0  0  0  0  0  0  0  0
   16.9572  -14.4793    0.0000 S   0  0  0  0  0  0  0  0  0  0  0  0
   17.6570  -13.2647    0.0000 O   0  0  0  0  0  0  0  0  0  0  0  0
   16.2554  -15.6942    0.0000 O   0  0  0  0  0  0  0  0  0  0  0  0
   15.7415  -13.7787    0.0000 N   0  0  0  0  0  0  0  0  0  0  0  0
   21.0055  -18.6181    0.0000 C   0  0  0  0  0  0  0  0  0  0  0  0
   22.2165  -19.3259    0.0000 C   0  0  0  0  0  0  0  0  0  0  0  0
   21.0114  -17.2258    0.0000 C   0  0  0  0  0  0  0  0  0  0  0  0
   19.7888  -19.3201    0.0000 C   0  0  0  0  0  0  0  0  0  0  0  0
   21.0114  -20.0162    0.0000 O   0  0  0  0  0  0  0  0  0  0  0  0
   23.4274  -18.6298    0.0000 C   0  0  0  0  0  0  0  0  0  0  0  0
   22.2107  -20.7299    0.0000 C   0  0  0  0  0  0  0  0  0  0  0  0
   19.7945  -16.5238    0.0000 C   0  0  0  0  0  0  0  0  0  0  0  0
   22.2222  -16.5238    0.0000 C   0  0  0  0  0  0  0  0  0  0  0  0
   18.5836  -18.6239    0.0000 C   0  0  0  0  0  0  0  0  0  0  0  0
   24.6325  -19.3318    0.0000 C   0  0  0  0  0  0  0  0  0  0  0  0
   23.4215  -21.4319    0.0000 C   0  0  0  0  0  0  0  0  0  0  0  0
   18.5778  -17.2258    0.0000 C   0  0  0  0  0  0  0  0  0  0  0  0
   22.2222  -15.1257    0.0000 N   0  0  0  0  0  0  0  0  0  0  0  0
   24.6384  -20.7359    0.0000 C   0  0  0  0  0  0  0  0  0  0  0  0
   25.8494  -18.6298    0.0000 O   0  0  0  0  0  0  0  0  0  0  0  0
   23.4332  -14.4236    0.0000 C   0  0  0  0  0  0  0  0  0  0  0  0
   21.0114  -14.4236    0.0000 C   0  0  0  0  0  0  0  0  0  0  0  0
   27.0603  -19.3318    0.0000 C   0  0  0  0  0  0  0  0  0  0  0  0
   31.3776  -18.7645    0.0000 Cl  0  0  0  0  0  0  0  0  0  0  0  0
  1  2  1  0
  1  3  2  0
  3  4  1  0
  4  5  1  0
  5  6  2  0
  1  6  1  0
  2  7  1  0
  2  8  1  0
  2  9  1  0
 10 11  2  0
 11 12  1  0
 12 13  2  0
 13 14  1  0
 14 15  2  0
 10 15  1  0
 13  4  1  0
 16 17  2  0
 17 18  1  0
 18 19  2  0
 19 20  1  0
 20 21  2  0
 16 21  1  0
 20  5  1  0
 17 22  1  0
 10 23  1  0
 23 24  2  0
 23 25  2  0
 23 26  1  0
 27 28  1  0
 27 29  1  0
 27 30  1  0
 27 31  1  6
 28 32  2  0
 28 33  1  0
 29 34  1  0
 29 35  1  6
 30 36  1  0
 32 37  1  0
 33 38  2  0
 34 39  1  0
 35 40  1  0
 37 41  2  0
 37 42  1  0
 40 43  1  0
 40 44  1  0
 42 45  1  0
 36 39  1  0
 38 41  1  0
M  END
