 
     RDKit          2D

 47 51  0  0  1  0  0  0  0  0999 V2000
   21.7908  -14.2119    0.0000 Cl  0  0  0  0  0  0  0  0  0  0  0  0
   14.0948  -15.5899    0.0000 C   0  0  0  0  0  0  0  0  0  0  0  0
   14.0948  -14.2668    0.0000 C   0  0  0  0  0  0  0  0  0  0  0  0
   15.2786  -16.2861    0.0000 C   0  0  0  0  0  0  0  0  0  0  0  0
   12.9806  -16.2166    0.0000 C   0  0  0  0  0  0  0  0  0  0  0  0
   15.2786  -14.9632    0.0000 C   0  0  0  0  0  0  0  0  0  0  0  0
   12.9806  -13.6401    0.0000 C   0  0  0  0  0  0  0  0  0  0  0  0
   15.2786  -13.6401    0.0000 C   0  0  0  0  0  0  0  0  0  0  0  0
   16.3927  -15.5899    0.0000 C   0  0  0  0  0  0  0  0  0  0  0  0
   15.2786  -17.5396    0.0000 C   0  0  0  0  0  0  0  0  0  0  0  0
   11.6576  -14.8934    0.0000 O   0  0  0  0  0  0  0  0  0  0  0  0
   12.9806  -17.5396    0.0000 C   0  0  0  0  0  0  0  0  0  0  0  0
   17.5068  -14.9632    0.0000 C   0  0  0  0  0  0  0  0  0  0  0  0
   12.9806  -12.3171    0.0000 C   0  0  0  0  0  0  0  0  0  0  0  0
   16.3927  -14.3364    0.0000 C   0  0  0  0  0  0  0  0  0  0  0  0
   15.2786  -12.3171    0.0000 C   0  0  0  0  0  0  0  0  0  0  0  0
   17.5068  -16.2861    0.0000 N   0  0  0  0  0  0  0  0  0  0  0  0
   14.0948  -18.2359    0.0000 C   0  0  0  0  0  0  0  0  0  0  0  0
   11.8665  -18.2359    0.0000 O   0  0  0  0  0  0  0  0  0  0  0  0
   14.1644  -11.6904    0.0000 C   0  0  0  0  0  0  0  0  0  0  0  0
   11.8665  -11.6904    0.0000 O   0  0  0  0  0  0  0  0  0  0  0  0
   16.5319  -17.1914    0.0000 O   0  0  0  0  0  0  0  0  0  0  0  0
   18.9047  -16.2861    0.0000 C   0  0  0  0  0  0  0  0  0  0  0  0
   19.6072  -17.5026    0.0000 C   0  0  0  0  0  0  0  0  0  0  0  0
   21.0000  -17.5025    0.0000 C   0  0  0  0  0  0  0  0  0  0  0  0
   38.7586  -17.6371    0.0000 Cl  0  0  0  0  0  0  0  0  0  0  0  0
   32.2000  -20.1600    0.0000 C   0  0  0  0  0  0  0  0  0  0  0  0
   32.2000  -18.8300    0.0000 C   0  0  0  0  0  0  0  0  0  0  0  0
   33.4600  -20.8600    0.0000 C   0  0  0  0  0  0  0  0  0  0  0  0
   31.0800  -20.7900    0.0000 C   0  0  0  0  0  0  0  0  0  0  0  0
   33.4600  -19.5300    0.0000 C   0  0  0  0  0  0  0  0  0  0  0  0
   31.0800  -18.2000    0.0000 C   0  0  0  0  0  0  0  0  0  0  0  0
   33.4600  -18.2000    0.0000 C   0  0  0  0  0  0  0  0  0  0  0  0
   34.5800  -20.1600    0.0000 C   0  0  0  0  0  0  0  0  0  0  0  0
   35.7000  -19.5300    0.0000 C   0  0  0  0  0  0  0  0  0  0  0  0
   31.0800  -16.8700    0.0000 C   0  0  0  0  0  0  0  0  0  0  0  0
   34.5800  -18.9000    0.0000 C   0  0  0  0  0  0  0  0  0  0  0  0
   33.4600  -16.8700    0.0000 C   0  0  0  0  0  0  0  0  0  0  0  0
   35.7000  -20.8600    0.0000 N   0  0  0  0  0  0  0  0  0  0  0  0
   32.2700  -16.1700    0.0000 C   0  0  0  0  0  0  0  0  0  0  0  0
   29.9600  -16.1700    0.0000 O   0  0  0  0  0  0  0  0  0  0  0  0
   37.1000  -20.8600    0.0000 C   0  0  0  0  0  0  0  0  0  0  0  0
   37.8700  -22.1200    0.0000 C   0  0  0  0  0  0  0  0  0  0  0  0
   33.4600  -22.3300    0.0000 C   0  0  0  0  0  0  0  0  0  0  0  0
   39.2700  -22.1200    0.0000 C   0  0  0  0  0  0  0  0  0  0  0  0
   39.9700  -23.3800    0.0000 C   0  0  0  0  0  0  0  0  0  0  0  0
   39.9700  -20.8600    0.0000 C   0  0  0  0  0  0  0  0  0  0  0  0
  2  3  1  0
  2  4  1  0
  2  5  1  0
  2  6  1  1
  3  7  2  0
  3  8  1  0
  4  9  1  0
  4 10  1  0
  5 11  1  6
  5 12  1  0
  6 13  1  0
  7 14  1  0
  8 15  1  0
  8 16  2  0
  9 17  1  0
 10 18  1  0
 12 19  2  0
 14 20  2  0
 14 21  1  0
  7 11  1  0
  9 15  1  1
 12 18  1  0
 13 17  1  0
 16 20  1  0
  4 22  1  1
 17 23  1  0
 23 24  1  0
 24 25  2  0
 27 28  1  0
 27 29  1  0
 27 30  1  1
 27 31  1  0
 28 32  2  0
 28 33  1  0
 29 34  1  0
 31 35  1  0
 32 36  1  0
 33 37  1  0
 33 38  2  0
 34 39  1  0
 36 40  2  0
 36 41  1  0
 34 37  1  1
 35 39  1  0
 38 40  1  0
 39 42  1  0
 42 43  1  0
 29 44  1  6
 43 45  2  0
 45 46  1  0
 45 47  1  0
M  END
