 
 
 
 24 24  0  0  1  0  0  0  0  0999 V2000
   13.9300  -18.4100    0.0000 C   0  0  0  0  0  0  0  0  0  0  0  0
   13.9300  -19.8100    0.0000 C   0  0  0  0  0  0  0  0  0  0  0  0
   15.1424  -20.5100    0.0000 C   0  0  0  0  0  0  0  0  0  0  0  0
   16.3549  -19.8100    0.0000 C   0  0  0  0  0  0  0  0  0  0  0  0
   16.3549  -18.4100    0.0000 C   0  0  0  0  0  0  0  0  0  0  0  0
   15.1424  -17.7100    0.0000 N   0  0  0  0  0  0  0  0  0  0  0  0
   12.7176  -17.7100    0.0000 O   0  0  0  0  0  0  0  0  0  0  0  0
   11.5221  -18.4004    0.0000 C   0  0  0  0  0  0  0  0  0  0  0  0
   12.7176  -20.5100    0.0000 C   0  0  0  0  0  0  0  0  0  0  0  0
   11.5051  -21.2100    0.0000 F   0  0  0  0  0  0  0  0  0  0  0  0
   12.0176  -19.2976    0.0000 F   0  0  0  0  0  0  0  0  0  0  0  0
   13.4176  -21.7224    0.0000 F   0  0  0  0  0  0  0  0  0  0  0  0
   17.5860  -20.5210    0.0000 N   0  0  0  0  0  0  0  0  0  0  0  0
   17.5860  -17.6990    0.0000 C   0  0  0  0  0  0  0  0  0  0  0  0
   18.7912  -18.3947    0.0000 N   0  0  0  0  0  0  0  0  0  0  0  0
   17.5857  -16.3101    0.0000 O   0  0  0  0  0  0  0  0  0  0  0  0
   19.9735  -17.7119    0.0000 C   0  0  0  0  0  0  0  0  0  0  0  0
   21.1675  -18.4012    0.0000 C   0  0  0  0  0  0  0  0  0  0  0  0
   22.3554  -17.7152    0.0000 C   0  0  0  0  0  0  0  0  0  0  0  0
   20.4675  -19.6136    0.0000 O   0  0  0  0  0  0  0  0  0  0  0  0
   21.8675  -19.6136    0.0000 C   0  0  0  0  0  0  0  0  0  0  0  0
   23.5679  -17.0152    0.0000 F   0  0  0  0  0  0  0  0  0  0  0  0
   21.6554  -16.5028    0.0000 F   0  0  0  0  0  0  0  0  0  0  0  0
   23.0554  -18.9276    0.0000 F   0  0  0  0  0  0  0  0  0  0  0  0
  1  2  2  0     0  0
  2  3  1  0     0  0
  3  4  2  0     0  0
  4  5  1  0     0  0
  5  6  2  0     0  0
  1  6  1  0     0  0
  1  7  1  0     0  0
  7  8  1  0     0  0
  2  9  1  0     0  0
  9 10  1  0     0  0
  9 11  1  0     0  0
  9 12  1  0     0  0
  4 13  1  0     0  0
  5 14  1  0     0  0
 14 15  1  0     0  0
 14 16  2  0     0  0
 15 17  1  0     0  0
 17 18  1  0     0  0
 18 19  1  0     0  0
 18 20  1  1     0  0
 18 21  1  6     0  0
 19 22  1  0     0  0
 19 23  1  0     0  0
 19 24  1  0     0  0
M  END
