 
 
 
 39 42  0  0  0  0  0  0  0  0999 V2000
   12.1501  -11.6613    0.0000 C   0  0  0  0  0  0  0  0  0  0  0  0
   12.1501  -13.0579    0.0000 N   0  0  0  0  0  0  0  0  0  0  0  0
   13.4070  -13.7561    0.0000 C   0  0  0  0  0  0  0  0  0  0  0  0
   14.5941  -13.0579    0.0000 C   0  0  0  0  0  0  0  0  0  0  0  0
   14.5941  -11.6613    0.0000 C   0  0  0  0  0  0  0  0  0  0  0  0
   13.4070  -10.9631    0.0000 N   0  0  0  0  0  0  0  0  0  0  0  0
   15.9208  -13.5467    0.0000 C   0  0  0  0  0  0  0  0  0  0  0  0
   16.7587  -12.3596    0.0000 C   0  0  0  0  0  0  0  0  0  0  0  0
   15.9208  -11.2424    0.0000 N   0  0  0  0  0  0  0  0  0  0  0  0
   18.0854  -12.3596    0.0000 C   0  0  0  0  0  0  0  0  0  0  0  0
   18.7837  -13.6165    0.0000 C   0  0  0  0  0  0  0  0  0  0  0  0
   20.1803  -13.6165    0.0000 C   0  0  0  0  0  0  0  0  0  0  0  0
   20.9484  -12.3596    0.0000 C   0  0  0  0  0  0  0  0  0  0  0  0
   20.1803  -11.1725    0.0000 C   0  0  0  0  0  0  0  0  0  0  0  0
   18.7837  -11.1725    0.0000 C   0  0  0  0  0  0  0  0  0  0  0  0
   22.3449  -12.3596    0.0000 N   0  0  0  0  0  0  0  0  0  0  0  0
   23.0432  -13.6165    0.0000 C   0  0  0  0  0  0  0  0  0  0  0  0
   24.4397  -13.6165    0.0000 C   0  0  0  0  0  0  0  0  0  0  0  0
   22.3449  -14.8036    0.0000 O   0  0  0  0  0  0  0  0  0  0  0  0
   25.0682  -14.8036    0.0000 C   0  0  0  0  0  0  0  0  0  0  0  0
   25.1380  -12.3596    0.0000 C   0  0  0  0  0  0  0  0  0  0  0  0
   16.3398  -14.8734    0.0000 C   0  0  0  0  0  0  0  0  0  0  0  0
   15.4320  -15.8510    0.0000 C   0  0  0  0  0  0  0  0  0  0  0  0
   15.8510  -17.1777    0.0000 C   0  0  0  0  0  0  0  0  0  0  0  0
   17.2475  -17.5268    0.0000 C   0  0  0  0  0  0  0  0  0  0  0  0
   18.1553  -16.4794    0.0000 C   0  0  0  0  0  0  0  0  0  0  0  0
   17.7363  -15.1527    0.0000 C   0  0  0  0  0  0  0  0  0  0  0  0
   19.5518  -16.7587    0.0000 F   0  0  0  0  0  0  0  0  0  0  0  0
   17.6665  -18.8535    0.0000 O   0  0  0  0  0  0  0  0  0  0  0  0
   18.9932  -19.1328    0.0000 C   0  0  0  0  0  0  0  0  0  0  0  0
   19.4122  -20.4596    0.0000 N   0  0  0  0  0  0  0  0  0  0  0  0
   20.8087  -20.7389    0.0000 C   0  0  0  0  0  0  0  0  0  0  0  0
   21.7165  -19.6915    0.0000 C   0  0  0  0  0  0  0  0  0  0  0  0
   21.2975  -18.3647    0.0000 C   0  0  0  0  0  0  0  0  0  0  0  0
   19.9009  -18.0854    0.0000 N   0  0  0  0  0  0  0  0  0  0  0  0
   21.2277  -22.0656    0.0000 C   0  0  0  0  0  0  0  0  0  0  0  0
   13.4070  -15.1527    0.0000 N   0  0  0  0  0  0  0  0  0  0  0  0
   16.3398   -9.9156    0.0000 C   0  0  0  0  0  0  0  0  0  0  0  0
   26.3900  -20.7200    0.0000 Cl  0  0  0  0  0  0  0  0  0  0  0  0
  1  2  2  0     0  0
  2  3  1  0     0  0
  3  4  2  0     0  0
  4  5  1  0     0  0
  5  6  2  0     0  0
  1  6  1  0     0  0
  4  7  1  0     0  0
  7  8  2  0     0  0
  8  9  1  0     0  0
  5  9  1  0     0  0
  8 10  1  0     0  0
 10 11  2  0     0  0
 11 12  1  0     0  0
 12 13  2  0     0  0
 13 14  1  0     0  0
 14 15  2  0     0  0
 10 15  1  0     0  0
 13 16  1  0     0  0
 16 17  1  0     0  0
 17 18  1  0     0  0
 17 19  2  0     0  0
 18 20  1  0     0  0
 18 21  2  0     0  0
  7 22  1  0     0  0
 22 23  2  0     0  0
 23 24  1  0     0  0
 24 25  2  0     0  0
 25 26  1  0     0  0
 26 27  2  0     0  0
 22 27  1  0     0  0
 26 28  1  0     0  0
 25 29  1  0     0  0
 29 30  1  0     0  0
 30 31  2  0     0  0
 31 32  1  0     0  0
 32 33  2  0     0  0
 33 34  1  0     0  0
 34 35  2  0     0  0
 30 35  1  0     0  0
 32 36  1  0     0  0
  3 37  1  0     0  0
  9 38  1  0     0  0
M  END
