 
 
 
 32 35  0  0  0  0  0  0  0  0999 V2000
    5.6000  -14.8400    0.0000 C   0  0  0  0  0  0  0  0  0  0  0  0
    5.6000  -16.2400    0.0000 N   0  0  0  0  0  0  0  0  0  0  0  0
    6.8124  -16.9400    0.0000 C   0  0  0  0  0  0  0  0  0  0  0  0
    8.0249  -16.2400    0.0000 C   0  0  0  0  0  0  0  0  0  0  0  0
    8.0249  -14.8400    0.0000 C   0  0  0  0  0  0  0  0  0  0  0  0
    6.8124  -14.1400    0.0000 N   0  0  0  0  0  0  0  0  0  0  0  0
    9.2560  -14.1290    0.0000 N   0  0  0  0  0  0  0  0  0  0  0  0
   10.4612  -14.8247    0.0000 C   0  0  0  0  0  0  0  0  0  0  0  0
   11.6435  -14.1419    0.0000 C   0  0  0  0  0  0  0  0  0  0  0  0
   12.8375  -14.8312    0.0000 C   0  0  0  0  0  0  0  0  0  0  0  0
   14.0499  -14.1312    0.0000 C   0  0  0  0  0  0  0  0  0  0  0  0
   14.0499  -12.7312    0.0000 N   0  0  0  0  0  0  0  0  0  0  0  0
   12.8560  -12.0419    0.0000 C   0  0  0  0  0  0  0  0  0  0  0  0
   11.6435  -12.7419    0.0000 C   0  0  0  0  0  0  0  0  0  0  0  0
   15.2734  -12.0246    0.0000 C   0  0  0  0  0  0  0  0  0  0  0  0
   16.4824  -12.7225    0.0000 C   0  0  0  0  0  0  0  0  0  0  0  0
   17.6629  -12.0408    0.0000 C   0  0  0  0  0  0  0  0  0  0  0  0
   15.2732  -10.6401    0.0000 O   0  0  0  0  0  0  0  0  0  0  0  0
    9.2560  -16.9510    0.0000 C   0  0  0  0  0  0  0  0  0  0  0  0
    9.2557  -18.3399    0.0000 C   0  0  0  0  0  0  0  0  0  0  0  0
   10.4680  -19.0402    0.0000 C   0  0  0  0  0  0  0  0  0  0  0  0
   11.6806  -18.3405    0.0000 C   0  0  0  0  0  0  0  0  0  0  0  0
   11.6809  -16.9516    0.0000 C   0  0  0  0  0  0  0  0  0  0  0  0
   10.4686  -16.2513    0.0000 C   0  0  0  0  0  0  0  0  0  0  0  0
   12.8997  -19.0447    0.0000 O   0  0  0  0  0  0  0  0  0  0  0  0
   14.0994  -18.3523    0.0000 C   0  0  0  0  0  0  0  0  0  0  0  0
   15.2843  -19.0367    0.0000 C   0  0  0  0  0  0  0  0  0  0  0  0
   16.4969  -18.3370    0.0000 C   0  0  0  0  0  0  0  0  0  0  0  0
   16.4972  -16.9370    0.0000 C   0  0  0  0  0  0  0  0  0  0  0  0
   15.3123  -16.2525    0.0000 C   0  0  0  0  0  0  0  0  0  0  0  0
   14.0997  -16.9523    0.0000 C   0  0  0  0  0  0  0  0  0  0  0  0
    6.8124  -18.3398    0.0000 N   0  0  0  0  0  0  0  0  0  0  0  0
  1  2  2  0     0  0
  2  3  1  0     0  0
  3  4  2  0     0  0
  4  5  1  0     0  0
  5  6  2  0     0  0
  1  6  1  0     0  0
  5  7  1  0     0  0
  7  8  1  0     0  0
  8  9  1  0     0  0
  9 10  1  0     0  0
 10 11  1  0     0  0
 11 12  1  0     0  0
 12 13  1  0     0  0
 13 14  1  0     0  0
  9 14  1  0     0  0
 12 15  1  0     0  0
 15 16  1  0     0  0
 16 17  2  0     0  0
 15 18  2  0     0  0
  4 19  1  0     0  0
 19 20  2  0     0  0
 20 21  1  0     0  0
 21 22  2  0     0  0
 22 23  1  0     0  0
 23 24  2  0     0  0
 19 24  1  0     0  0
 22 25  1  0     0  0
 25 26  1  0     0  0
 26 27  2  0     0  0
 27 28  1  0     0  0
 28 29  2  0     0  0
 29 30  1  0     0  0
 30 31  2  0     0  0
 26 31  1  0     0  0
  3 32  1  0     0  0
M  END
