 
 
 
 75 84  0  0  0  0  0  0  0  0999 V2000
   15.8498  -10.3093    0.0000 C   0  0  0  0  0  0  0  0  0  0  0  0
   15.8498  -11.7119    0.0000 C   0  0  0  0  0  0  0  0  0  0  0  0
   14.6575  -12.4132    0.0000 C   0  0  0  0  0  0  0  0  0  0  0  0
   13.3952  -11.7119    0.0000 N   0  0  0  0  0  0  0  0  0  0  0  0
   13.3952  -10.3093    0.0000 C   0  0  0  0  0  0  0  0  0  0  0  0
   14.6575   -9.6080    0.0000 N   0  0  0  0  0  0  0  0  0  0  0  0
   17.0420   -9.6080    0.0000 C   0  0  0  0  0  0  0  0  0  0  0  0
   18.3044  -10.3093    0.0000 C   0  0  0  0  0  0  0  0  0  0  0  0
   18.3044  -11.7119    0.0000 C   0  0  0  0  0  0  0  0  0  0  0  0
   17.0420  -12.4132    0.0000 C   0  0  0  0  0  0  0  0  0  0  0  0
   19.4966  -12.4132    0.0000 N   0  0  0  0  0  0  0  0  0  0  0  0
   20.6888  -11.7119    0.0000 C   0  0  0  0  0  0  0  0  0  0  0  0
   20.6888  -10.3093    0.0000 O   0  0  0  0  0  0  0  0  0  0  0  0
   22.0213   -9.8184    0.0000 C   0  0  0  0  0  0  0  0  0  0  0  0
   22.8629  -10.9405    0.0000 C   0  0  0  0  0  0  0  0  0  0  0  0
   22.0914  -12.1327    0.0000 N   0  0  0  0  0  0  0  0  0  0  0  0
   14.6575  -13.8158    0.0000 N   0  0  0  0  0  0  0  0  0  0  0  0
   23.5642   -9.7482    0.0000 C   0  0  0  0  0  0  0  0  0  0  0  0
   23.8447  -11.9223    0.0000 C   0  0  0  0  0  0  0  0  0  0  0  0
   15.9199  -14.5171    0.0000 C   0  0  0  0  0  0  0  0  0  0  0  0
   15.9199  -15.9198    0.0000 C   0  0  0  0  0  0  0  0  0  0  0  0
   17.1121  -16.6211    0.0000 C   0  0  0  0  0  0  0  0  0  0  0  0
   18.3044  -15.9198    0.0000 C   0  0  0  0  0  0  0  0  0  0  0  0
   18.3044  -14.5171    0.0000 C   0  0  0  0  0  0  0  0  0  0  0  0
   17.1121  -13.8158    0.0000 C   0  0  0  0  0  0  0  0  0  0  0  0
   19.4966  -13.8158    0.0000 C   0  0  0  0  0  0  0  0  0  0  0  0
   19.5667  -16.6211    0.0000 O   0  0  0  0  0  0  0  0  0  0  0  0
   19.4966  -18.0237    0.0000 C   0  0  0  0  0  0  0  0  0  0  0  0
   18.3044  -18.7250    0.0000 C   0  0  0  0  0  0  0  0  0  0  0  0
   18.3044  -20.1276    0.0000 C   0  0  0  0  0  0  0  0  0  0  0  0
   19.4966  -20.8289    0.0000 N   0  0  0  0  0  0  0  0  0  0  0  0
   20.6888  -20.1276    0.0000 C   0  0  0  0  0  0  0  0  0  0  0  0
   20.6888  -18.7250    0.0000 C   0  0  0  0  0  0  0  0  0  0  0  0
   19.7771  -22.1614    0.0000 N   0  0  0  0  0  0  0  0  0  0  0  0
   21.1096  -22.3718    0.0000 C   0  0  0  0  0  0  0  0  0  0  0  0
   21.6706  -21.1095    0.0000 N   0  0  0  0  0  0  0  0  0  0  0  0
   29.8200  -20.2300    0.0000 C   0  0  0  0  0  0  0  0  0  0  0  0
   31.0324  -20.9300    0.0000 C   0  0  0  0  0  0  0  0  0  0  0  0
   28.6076  -20.9300    0.0000 O   0  0  0  0  0  0  0  0  0  0  0  0
   15.8498  -10.3093    0.0000 C   0  0  0  0  0  0  0  0  0  0  0  0
   15.8498  -11.7119    0.0000 C   0  0  0  0  0  0  0  0  0  0  0  0
   14.6575  -12.4132    0.0000 C   0  0  0  0  0  0  0  0  0  0  0  0
   13.3952  -11.7119    0.0000 N   0  0  0  0  0  0  0  0  0  0  0  0
   13.3952  -10.3093    0.0000 C   0  0  0  0  0  0  0  0  0  0  0  0
   14.6575   -9.6080    0.0000 N   0  0  0  0  0  0  0  0  0  0  0  0
   14.6575  -13.8158    0.0000 N   0  0  0  0  0  0  0  0  0  0  0  0
   15.9199  -14.5171    0.0000 C   0  0  0  0  0  0  0  0  0  0  0  0
   15.9199  -15.9198    0.0000 C   0  0  0  0  0  0  0  0  0  0  0  0
   17.1121  -16.6211    0.0000 C   0  0  0  0  0  0  0  0  0  0  0  0
   18.3044  -15.9198    0.0000 C   0  0  0  0  0  0  0  0  0  0  0  0
   18.3044  -14.5171    0.0000 C   0  0  0  0  0  0  0  0  0  0  0  0
   17.1121  -13.8158    0.0000 C   0  0  0  0  0  0  0  0  0  0  0  0
   19.4966  -13.8158    0.0000 C   0  0  0  0  0  0  0  0  0  0  0  0
   19.5667  -16.6211    0.0000 O   0  0  0  0  0  0  0  0  0  0  0  0
   19.4966  -18.0237    0.0000 C   0  0  0  0  0  0  0  0  0  0  0  0
   18.3044  -18.7250    0.0000 C   0  0  0  0  0  0  0  0  0  0  0  0
   18.3044  -20.1276    0.0000 C   0  0  0  0  0  0  0  0  0  0  0  0
   19.4966  -20.8289    0.0000 N   0  0  0  0  0  0  0  0  0  0  0  0
   20.6888  -20.1276    0.0000 C   0  0  0  0  0  0  0  0  0  0  0  0
   20.6888  -18.7250    0.0000 C   0  0  0  0  0  0  0  0  0  0  0  0
   21.6706  -21.1095    0.0000 N   0  0  0  0  0  0  0  0  0  0  0  0
   21.1096  -22.3718    0.0000 C   0  0  0  0  0  0  0  0  0  0  0  0
   19.7771  -22.1614    0.0000 N   0  0  0  0  0  0  0  0  0  0  0  0
   17.0420  -12.4132    0.0000 C   0  0  0  0  0  0  0  0  0  0  0  0
   18.3044  -11.7119    0.0000 C   0  0  0  0  0  0  0  0  0  0  0  0
   18.3044  -10.3093    0.0000 C   0  0  0  0  0  0  0  0  0  0  0  0
   17.0420   -9.6080    0.0000 C   0  0  0  0  0  0  0  0  0  0  0  0
   19.4966  -12.4132    0.0000 N   0  0  0  0  0  0  0  0  0  0  0  0
   20.6888  -11.7119    0.0000 C   0  0  0  0  0  0  0  0  0  0  0  0
   20.6888  -10.3093    0.0000 O   0  0  0  0  0  0  0  0  0  0  0  0
   22.0213   -9.8184    0.0000 C   0  0  0  0  0  0  0  0  0  0  0  0
   22.8629  -10.9405    0.0000 C   0  0  0  0  0  0  0  0  0  0  0  0
   22.0914  -12.1327    0.0000 N   0  0  0  0  0  0  0  0  0  0  0  0
   23.5642   -9.7482    0.0000 C   0  0  0  0  0  0  0  0  0  0  0  0
   23.8447  -11.9223    0.0000 C   0  0  0  0  0  0  0  0  0  0  0  0
 37 38  1  0     0  0
 37 39  1  0     0  0
  1  2  2  0     0  0
  2  3  1  0     0  0
  3  4  2  0     0  0
  4  5  1  0     0  0
  5  6  2  0     0  0
  1  6  1  0     0  0
  1  7  1  0     0  0
  7  8  2  0     0  0
  8  9  1  0     0  0
  9 10  2  0     0  0
  2 10  1  0     0  0
  9 11  1  0     0  0
 11 12  1  0     0  0
 12 13  1  0     0  0
 13 14  1  0     0  0
 14 15  1  0     0  0
 15 16  1  0     0  0
 12 16  2  0     0  0
  3 17  1  0     0  0
 15 18  1  0     0  0
 15 19  1  0     0  0
 17 20  1  0     0  0
 20 21  2  0     0  0
 21 22  1  0     0  0
 22 23  2  0     0  0
 23 24  1  0     0  0
 24 25  2  0     0  0
 20 25  1  0     0  0
 24 26  1  0     0  0
 23 27  1  0     0  0
 27 28  1  0     0  0
 28 29  1  0     0  0
 29 30  2  0     0  0
 30 31  1  0     0  0
 31 32  1  0     0  0
 32 33  1  0     0  0
 28 33  2  0     0  0
 31 34  1  0     0  0
 34 35  2  0     0  0
 35 36  1  0     0  0
 32 36  2  0     0  0
 40 41  2  0     0  0
 41 42  1  0     0  0
 42 43  2  0     0  0
 43 44  1  0     0  0
 44 45  2  0     0  0
 40 45  1  0     0  0
 40 67  1  0     0  0
 67 66  2  0     0  0
 66 65  1  0     0  0
 65 64  2  0     0  0
 41 64  1  0     0  0
 65 68  1  0     0  0
 68 69  1  0     0  0
 69 70  1  0     0  0
 70 71  1  0     0  0
 71 72  1  0     0  0
 72 73  1  0     0  0
 69 73  2  0     0  0
 42 46  1  0     0  0
 72 74  1  0     0  0
 72 75  1  0     0  0
 46 47  1  0     0  0
 47 48  2  0     0  0
 48 49  1  0     0  0
 49 50  2  0     0  0
 50 51  1  0     0  0
 51 52  2  0     0  0
 47 52  1  0     0  0
 51 53  1  0     0  0
 50 54  1  0     0  0
 54 55  1  0     0  0
 55 56  1  0     0  0
 56 57  2  0     0  0
 57 58  1  0     0  0
 58 59  1  0     0  0
 59 60  1  0     0  0
 55 60  2  0     0  0
 58 63  1  0     0  0
 63 62  2  0     0  0
 62 61  1  0     0  0
 59 61  2  0     0  0
M  STY  1   1 MUL
M  SLB  1   1   1
M  SCN  1   1 HT 
M  SAL   1 15   1   2   3   4   5   6   7   8   9  10  11  12  13  14  15
M  SAL   1 15  16  17  18  19  20  21  22  23  24  25  26  27  28  29  30
M  SAL   1 15  31  32  33  34  35  36  40  41  42  43  44  45  46  47  48
M  SAL   1 15  49  50  51  52  53  54  55  56  57  58  59  60  61  62  63
M  SAL   1 12  64  65  66  67  68  69  70  71  72  73  74  75
M  SPA   1 15   1   2   3   4   5   6  17  20  21  22  23  24  25  26  27
M  SPA   1 15  28  29  30  31  32  33  36  35  34  10   9   8   7  11  12
M  SPA   1  6  13  14  15  16  18  19
M  SDI   1  4   12.8100  -22.8900   12.8100   -8.6100
M  SDI   1  4   25.6900   -8.6100   25.6900  -22.8900
M  SMT   1 2
M  END
