 
 
 
 38 45  0  0  0  0  0  0  0  0999 V2000
    7.8400   -9.8000    0.0000 C   0  0  0  0  0  0  0  0  0  0  0  0
    7.8400  -11.2000    0.0000 C   0  0  0  0  0  0  0  0  0  0  0  0
    9.0524  -11.9000    0.0000 C   0  0  0  0  0  0  0  0  0  0  0  0
   10.2649  -11.2000    0.0000 C   0  0  0  0  0  0  0  0  0  0  0  0
   10.2649   -9.8000    0.0000 C   0  0  0  0  0  0  0  0  0  0  0  0
    9.0524   -9.1000    0.0000 C   0  0  0  0  0  0  0  0  0  0  0  0
   11.4773  -11.9000    0.0000 C   0  0  0  0  0  0  0  0  0  0  0  0
   12.6897  -11.2000    0.0000 C   0  0  0  0  0  0  0  0  0  0  0  0
   12.6897   -9.8000    0.0000 C   0  0  0  0  0  0  0  0  0  0  0  0
   11.4773   -9.1000    0.0000 C   0  0  0  0  0  0  0  0  0  0  0  0
   13.9022  -11.9000    0.0000 C   0  0  0  0  0  0  0  0  0  0  0  0
   15.1146  -11.2000    0.0000 C   0  0  0  0  0  0  0  0  0  0  0  0
   15.1146   -9.8000    0.0000 C   0  0  0  0  0  0  0  0  0  0  0  0
   13.9022   -9.1000    0.0000 C   0  0  0  0  0  0  0  0  0  0  0  0
   11.4773  -13.3000    0.0000 C   0  0  0  0  0  0  0  0  0  0  0  0
   12.6897  -14.0000    0.0000 C   0  0  0  0  0  0  0  0  0  0  0  0
   13.9022  -13.3000    0.0000 C   0  0  0  0  0  0  0  0  0  0  0  0
    9.0524  -13.3000    0.0000 C   0  0  0  0  0  0  0  0  0  0  0  0
   10.2649  -14.0000    0.0000 C   0  0  0  0  0  0  0  0  0  0  0  0
    7.8400  -14.0000    0.0000 C   0  0  0  0  0  0  0  0  0  0  0  0
    7.8400  -15.4000    0.0000 C   0  0  0  0  0  0  0  0  0  0  0  0
    9.0524  -16.1000    0.0000 C   0  0  0  0  0  0  0  0  0  0  0  0
   10.2649  -15.4000    0.0000 C   0  0  0  0  0  0  0  0  0  0  0  0
   11.4773  -16.1000    0.0000 C   0  0  0  0  0  0  0  0  0  0  0  0
   12.6897  -15.4000    0.0000 C   0  0  0  0  0  0  0  0  0  0  0  0
   13.9022  -16.1000    0.0000 C   0  0  0  0  0  0  0  0  0  0  0  0
   15.1146  -15.4000    0.0000 C   0  0  0  0  0  0  0  0  0  0  0  0
   15.1146  -14.0000    0.0000 C   0  0  0  0  0  0  0  0  0  0  0  0
    6.6276  -11.9000    0.0000 C   0  0  0  0  0  0  0  0  0  0  0  0
    9.0524   -7.7002    0.0000 O   0  0  0  0  0  0  0  0  0  0  0  0
   11.4773   -7.7000    0.0000 O   0  0  0  0  0  0  0  0  0  0  0  0
   13.9022   -7.7003    0.0000 O   0  0  0  0  0  0  0  0  0  0  0  0
   16.3311  -11.9023    0.0000 O   0  0  0  0  0  0  0  0  0  0  0  0
    6.6276  -13.3000    0.0000 C   0  0  0  0  0  0  0  0  0  0  0  0
    9.0524  -17.4998    0.0000 O   0  0  0  0  0  0  0  0  0  0  0  0
   11.4773  -17.5000    0.0000 O   0  0  0  0  0  0  0  0  0  0  0  0
   13.9022  -17.4997    0.0000 O   0  0  0  0  0  0  0  0  0  0  0  0
   16.3311  -13.2977    0.0000 O   0  0  0  0  0  0  0  0  0  0  0  0
  1  2  1  0     0  0
  2  3  2  0     0  0
  3  4  1  0     0  0
  4  5  2  0     0  0
  5  6  1  0     0  0
  1  6  2  0     0  0
  4  7  1  0     0  0
  7  8  1  0     0  0
  8  9  2  0     0  0
  9 10  1  0     0  0
  5 10  1  0     0  0
  8 11  1  0     0  0
 11 12  2  0     0  0
 12 13  1  0     0  0
 13 14  2  0     0  0
  9 14  1  0     0  0
  7 15  2  0     0  0
 15 16  1  0     0  0
 16 17  1  0     0  0
 17 11  1  0     0  0
  3 18  1  0     0  0
 18 19  1  0     0  0
 19 15  1  0     0  0
 18 20  2  0     0  0
 20 21  1  0     0  0
 21 22  2  0     0  0
 22 23  1  0     0  0
 19 23  2  0     0  0
 23 24  1  0     0  0
 24 25  1  0     0  0
 16 25  2  0     0  0
 25 26  1  0     0  0
 26 27  2  0     0  0
 27 28  1  0     0  0
 17 28  2  0     0  0
  2 29  1  0     0  0
  6 30  1  0     0  0
 10 31  2  0     0  0
 14 32  1  0     0  0
 12 33  1  0     0  0
 20 34  1  0     0  0
 22 35  1  0     0  0
 24 36  2  0     0  0
 26 37  1  0     0  0
 28 38  1  0     0  0
M  END
