 
 
 
 27 30  0  0  0  0  0  0  0  0999 V2000
   20.9300  -11.5500    0.0000 C   0  0  0  0  0  0  0  0  0  0  0  0
   20.9300  -12.9500    0.0000 C   0  0  0  0  0  0  0  0  0  0  0  0
   22.1424  -13.6500    0.0000 C   0  0  0  0  0  0  0  0  0  0  0  0
   23.3549  -12.9500    0.0000 C   0  0  0  0  0  0  0  0  0  0  0  0
   23.3549  -11.5500    0.0000 C   0  0  0  0  0  0  0  0  0  0  0  0
   22.1424  -10.8500    0.0000 C   0  0  0  0  0  0  0  0  0  0  0  0
   22.4335  -15.0194    0.0000 C   0  0  0  0  0  0  0  0  0  0  0  0
   23.8259  -15.1658    0.0000 C   0  0  0  0  0  0  0  0  0  0  0  0
   24.3953  -13.8868    0.0000 C   0  0  0  0  0  0  0  0  0  0  0  0
   21.8514   -9.4806    0.0000 C   0  0  0  0  0  0  0  0  0  0  0  0
   20.4590   -9.3342    0.0000 C   0  0  0  0  0  0  0  0  0  0  0  0
   19.8896  -10.6132    0.0000 C   0  0  0  0  0  0  0  0  0  0  0  0
   19.7176  -13.6500    0.0000 N   0  0  0  0  0  0  0  0  0  0  0  0
   18.5221  -12.9596    0.0000 C   0  0  0  0  0  0  0  0  0  0  0  0
   17.3347  -13.6451    0.0000 N   0  0  0  0  0  0  0  0  0  0  0  0
   18.5220  -11.5503    0.0000 O   0  0  0  0  0  0  0  0  0  0  0  0
   16.1435  -12.9571    0.0000 S   0  0  0  0  0  0  0  0  0  0  0  0
   14.9540  -13.6438    0.0000 C   0  0  0  0  0  0  0  0  0  0  0  0
   13.7639  -12.9565    0.0000 C   0  0  0  0  0  0  0  0  0  0  0  0
   12.5513  -13.6563    0.0000 C   0  0  0  0  0  0  0  0  0  0  0  0
   12.5511  -15.0563    0.0000 N   0  0  0  0  0  0  0  0  0  0  0  0
   13.7413  -15.7436    0.0000 C   0  0  0  0  0  0  0  0  0  0  0  0
   14.9538  -15.0438    0.0000 C   0  0  0  0  0  0  0  0  0  0  0  0
   11.3256  -15.7638    0.0000 C   0  0  0  0  0  0  0  0  0  0  0  0
   10.1182  -15.0666    0.0000 C   0  0  0  0  0  0  0  0  0  0  0  0
   15.4435  -11.7447    0.0000 O   0  0  0  0  0  0  0  0  0  0  0  0
   16.8435  -11.7447    0.0000 O   0  0  0  0  0  0  0  0  0  0  0  0
  1  2  2  0     0  0
  2  3  1  0     0  0
  3  4  2  0     0  0
  4  5  1  0     0  0
  5  6  2  0     0  0
  1  6  1  0     0  0
  3  7  1  0     0  0
  7  8  1  0     0  0
  8  9  1  0     0  0
  4  9  1  0     0  0
  6 10  1  0     0  0
 10 11  1  0     0  0
 11 12  1  0     0  0
  1 12  1  0     0  0
  2 13  1  0     0  0
 13 14  1  0     0  0
 14 15  1  0     0  0
 14 16  2  0     0  0
 15 17  1  0     0  0
 17 18  1  0     0  0
 18 19  1  0     0  0
 19 20  1  0     0  0
 20 21  1  0     0  0
 21 22  1  0     0  0
 22 23  1  0     0  0
 18 23  1  0     0  0
 21 24  1  0     0  0
 24 25  1  0     0  0
 17 26  2  0     0  0
 17 27  2  0     0  0
M  END
