 
 
 
 39 43  0  0  1  0  0  0  0  0999 V2000
   13.5800  -10.9200    0.0000 C   0  0  0  0  0  0  0  0  0  0  0  0
   13.5800   -9.5200    0.0000 C   0  0  0  0  0  0  0  0  0  0  0  0
   14.9100   -9.1000    0.0000 C   0  0  0  0  0  0  0  0  0  0  0  0
   15.7500  -10.2200    0.0000 N   0  0  0  0  0  0  0  0  0  0  0  0
   14.9100  -11.3400    0.0000 C   0  0  0  0  0  0  0  0  0  0  0  0
   12.2500  -11.3400    0.0000 N   0  0  0  0  0  0  0  0  0  0  0  0
   11.4100  -10.2200    0.0000 C   0  0  0  0  0  0  0  0  0  0  0  0
   12.2500   -9.1000    0.0000 N   0  0  0  0  0  0  0  0  0  0  0  0
   10.0100  -10.2200    0.0000 C   0  0  0  0  0  0  0  0  0  0  0  0
    9.3100  -11.4100    0.0000 C   0  0  0  0  0  0  0  0  0  0  0  0
    7.9100  -11.4100    0.0000 N   0  0  0  0  0  0  0  0  0  0  0  0
    7.2100  -10.2200    0.0000 C   0  0  0  0  0  0  0  0  0  0  0  0
    7.9100   -9.0300    0.0000 N   0  0  0  0  0  0  0  0  0  0  0  0
    9.3100   -9.0300    0.0000 C   0  0  0  0  0  0  0  0  0  0  0  0
    5.8100  -10.2200    0.0000 O   0  0  0  0  0  0  0  0  0  0  0  0
    5.1100  -11.4100    0.0000 C   0  0  0  0  0  0  0  0  0  0  0  0
   10.0100   -7.8400    0.0000 O   0  0  0  0  0  0  0  0  0  0  0  0
   11.4100   -7.8400    0.0000 C   0  0  0  0  0  0  0  0  0  0  0  0
   11.8300  -12.6700    0.0000 C   0  0  0  0  0  0  0  0  0  0  0  0
   10.4300  -12.9500    0.0000 C   0  0  0  0  0  0  0  0  0  0  0  0
   12.7400  -13.7200    0.0000 C   0  0  0  0  0  0  0  0  0  0  0  0
   17.1500  -10.2200    0.0000 C   0  0  0  0  0  0  0  0  0  0  0  0
   15.3300   -7.7700    0.0000 O   0  0  0  0  0  0  0  0  0  0  0  0
   17.8500   -9.0300    0.0000 C   0  0  0  0  0  0  0  0  0  0  0  0
   19.2500   -9.0300    0.0000 N   0  0  0  0  0  0  0  0  0  0  0  0
   19.9500  -10.2200    0.0000 C   0  0  0  0  0  0  0  0  0  0  0  0
   19.2500  -11.4100    0.0000 C   0  0  0  0  0  0  0  0  0  0  0  0
   17.8500  -11.4100    0.0000 C   0  0  0  0  0  0  0  0  0  0  0  0
   15.3300  -12.6700    0.0000 C   0  0  0  0  0  0  0  0  0  0  0  0
   16.7300  -12.9500    0.0000 C   0  0  0  0  0  0  0  0  0  0  0  0
   17.1500  -14.2800    0.0000 C   0  0  0  0  0  0  0  0  0  0  0  0
   16.1700  -15.3300    0.0000 C   0  0  0  0  0  0  0  0  0  0  0  0
   14.8400  -15.0500    0.0000 C   0  0  0  0  0  0  0  0  0  0  0  0
   14.4200  -13.7200    0.0000 C   0  0  0  0  0  0  0  0  0  0  0  0
   16.5900  -16.6600    0.0000 Cl  0  0  0  0  0  0  0  0  0  0  0  0
   17.1500   -7.8400    0.0000 O   0  0  0  0  0  0  0  0  0  0  0  0
   19.9500   -7.8400    0.0000 C   0  0  0  0  0  0  0  0  0  0  0  0
   19.9500  -12.6000    0.0000 Cl  0  0  0  0  0  0  0  0  0  0  0  0
   14.2100  -12.5524    0.0000 H   0  0  0  0  0  0  0  0  0  0  0  0
  1  2  2  0     0  0
  2  3  1  0     0  0
  3  4  1  0     0  0
  4  5  1  0     0  0
  1  5  1  0     0  0
  1  6  1  0     0  0
  6  7  1  0     0  0
  7  8  2  0     0  0
  2  8  1  0     0  0
  7  9  1  0     0  0
  9 10  2  0     0  0
 10 11  1  0     0  0
 11 12  2  0     0  0
 12 13  1  0     0  0
 13 14  2  0     0  0
  9 14  1  0     0  0
 12 15  1  0     0  0
 15 16  1  0     0  0
 14 17  1  0     0  0
 17 18  1  0     0  0
  6 19  1  0     0  0
 19 20  1  0     0  0
 19 21  1  0     0  0
  4 22  1  0     0  0
  3 23  2  0     0  0
 22 24  1  0     0  0
 24 25  1  0     0  0
 25 26  1  0     0  0
 26 27  2  0     0  0
 27 28  1  0     0  0
 22 28  2  0     0  0
  5 29  1  1     0  0
 29 30  2  0     0  0
 30 31  1  0     0  0
 31 32  2  0     0  0
 32 33  1  0     0  0
 33 34  2  0     0  0
 29 34  1  0     0  0
 32 35  1  0     0  0
 24 36  2  0     0  0
 25 37  1  0     0  0
 27 38  1  0     0  0
  5 39  1  6     0  0
M  END
