 
 
 
 22 22  0  0  1  0  0  0  0  0999 V2000
   16.3275  -16.4677    0.0000 C   0  0  0  0  0  0  0  0  0  0  0  0
   16.7480  -17.7290    0.0000 C   0  0  0  0  0  0  0  0  0  0  0  0
   18.1495  -17.7290    0.0000 C   0  0  0  0  0  0  0  0  0  0  0  0
   18.5699  -16.3976    0.0000 C   0  0  0  0  0  0  0  0  0  0  0  0
   17.4487  -15.5567    0.0000 N   0  0  0  0  0  0  0  0  0  0  0  0
   19.7612  -15.6968    0.0000 C   0  0  0  0  0  0  0  0  0  0  0  0
   21.0225  -16.3976    0.0000 N   0  0  0  0  0  0  0  0  0  0  0  0
   19.7612  -14.2953    0.0000 O   0  0  0  0  0  0  0  0  0  0  0  0
   19.5599  -17.3875    0.0000 C   0  0  0  0  0  0  0  0  0  0  0  0
   22.2141  -15.6829    0.0000 C   0  0  0  0  0  0  0  0  0  0  0  0
   23.4183  -16.3518    0.0000 C   0  0  0  0  0  0  0  0  0  0  0  0
   22.1909  -14.2800    0.0000 C   0  0  0  0  0  0  0  0  0  0  0  0
   20.9664  -13.5998    0.0000 O   0  0  0  0  0  0  0  0  0  0  0  0
   23.3909  -13.5604    0.0000 O   0  0  0  0  0  0  0  0  0  0  0  0
   24.6292  -15.6253    0.0000 C   0  0  0  0  0  0  0  0  0  0  0  0
   25.8548  -16.3058    0.0000 C   0  0  0  0  0  0  0  0  0  0  0  0
   27.0352  -15.5975    0.0000 O   0  0  0  0  0  0  0  0  0  0  0  0
   25.8548  -17.7058    0.0000 O   0  0  0  0  0  0  0  0  0  0  0  0
   17.4214  -14.1400    0.0000 C   0  0  0  0  0  0  0  0  0  0  0  0
   16.2023  -13.4671    0.0000 C   0  0  0  0  0  0  0  0  0  0  0  0
   18.6265  -13.4130    0.0000 O   0  0  0  0  0  0  0  0  0  0  0  0
   14.9925  -14.1974    0.0000 N   0  0  0  0  0  0  0  0  0  0  0  0
  1  2  1  0     0  0
  2  3  1  0     0  0
  3  4  1  0     0  0
  4  5  1  0     0  0
  1  5  1  0     0  0
  4  6  1  0     0  0
  6  7  1  0     0  0
  6  8  2  0     0  0
  4  9  1  1     0  0
  7 10  1  0     0  0
 10 11  1  0     0  0
 10 12  1  6     0  0
 12 13  2  0     0  0
 12 14  1  0     0  0
 11 15  1  0     0  0
 15 16  1  0     0  0
 16 17  1  0     0  0
 16 18  2  0     0  0
  5 19  1  0     0  0
 19 20  1  0     0  0
 19 21  2  0     0  0
 20 22  1  0     0  0
M  END
