 
 
 
 42 43  0  0  0  0  0  0  0  0999 V2000
   24.8037  -15.7651    0.0000 C   0  0  0  0  0  0  0  0  0  0  0  0
   24.8037  -14.3637    0.0000 C   0  0  0  0  0  0  0  0  0  0  0  0
   23.6126  -13.6631    0.0000 C   0  0  0  0  0  0  0  0  0  0  0  0
   22.3514  -14.3637    0.0000 C   0  0  0  0  0  0  0  0  0  0  0  0
   22.3514  -15.7651    0.0000 C   0  0  0  0  0  0  0  0  0  0  0  0
   23.6126  -16.4658    0.0000 C   0  0  0  0  0  0  0  0  0  0  0  0
   21.1603  -16.4658    0.0000 N   0  0  0  0  0  0  0  0  0  0  0  0
   19.9691  -15.7651    0.0000 C   0  0  0  0  0  0  0  0  0  0  0  0
   18.7780  -16.4658    0.0000 C   0  0  0  0  0  0  0  0  0  0  0  0
   17.5168  -15.7651    0.0000 C   0  0  0  0  0  0  0  0  0  0  0  0
   16.3256  -16.4658    0.0000 C   0  0  0  0  0  0  0  0  0  0  0  0
   16.3256  -17.8671    0.0000 C   0  0  0  0  0  0  0  0  0  0  0  0
   17.5168  -18.5678    0.0000 C   0  0  0  0  0  0  0  0  0  0  0  0
   18.7780  -17.8671    0.0000 C   0  0  0  0  0  0  0  0  0  0  0  0
   15.1345  -15.8352    0.0000 N   0  0  0  0  0  0  0  0  0  0  0  0
   13.8733  -16.5358    0.0000 C   0  0  0  0  0  0  0  0  0  0  0  0
   12.6821  -15.8352    0.0000 N   0  0  0  0  0  0  0  0  0  0  0  0
   11.4910  -16.5358    0.0000 C   0  0  0  0  0  0  0  0  0  0  0  0
   11.4910  -17.9372    0.0000 C   0  0  0  0  0  0  0  0  0  0  0  0
   12.6821  -18.6378    0.0000 C   0  0  0  0  0  0  0  0  0  0  0  0
   13.8733  -17.9372    0.0000 N   0  0  0  0  0  0  0  0  0  0  0  0
   10.1597  -15.8352    0.0000 C   0  0  0  0  0  0  0  0  0  0  0  0
   10.1597  -14.4338    0.0000 C   0  0  0  0  0  0  0  0  0  0  0  0
    8.9686  -13.7331    0.0000 N   0  0  0  0  0  0  0  0  0  0  0  0
    7.7774  -14.4338    0.0000 C   0  0  0  0  0  0  0  0  0  0  0  0
    7.7774  -15.8352    0.0000 C   0  0  0  0  0  0  0  0  0  0  0  0
    8.9686  -16.5358    0.0000 C   0  0  0  0  0  0  0  0  0  0  0  0
   15.1345  -18.5678    0.0000 C   0  0  0  0  0  0  0  0  0  0  0  0
   19.9691  -14.3637    0.0000 O   0  0  0  0  0  0  0  0  0  0  0  0
   25.9949  -17.8671    0.0000 C   0  0  0  0  0  0  0  0  0  0  0  0
   25.9949  -16.4658    0.0000 N   0  0  0  0  0  0  0  0  0  0  0  0
   27.3962  -18.2875    0.0000 N   0  0  0  0  0  0  0  0  0  0  0  0
   28.1670  -17.1664    0.0000 C   0  0  0  0  0  0  0  0  0  0  0  0
   27.3262  -16.0454    0.0000 C   0  0  0  0  0  0  0  0  0  0  0  0
   23.6126  -12.2617    0.0000 C   0  0  0  0  0  0  0  0  0  0  0  0
   22.1412  -12.2617    0.0000 F   0  0  0  0  0  0  0  0  0  0  0  0
   29.5683  -17.1664    0.0000 C   0  0  0  0  0  0  0  0  0  0  0  0
   24.9439  -12.2617    0.0000 F   0  0  0  0  0  0  0  0  0  0  0  0
   23.6126  -10.8604    0.0000 F   0  0  0  0  0  0  0  0  0  0  0  0
   23.4725  -18.8480    0.0000 Cl  0  0  0  0  0  0  0  0  0  0  0  0
   30.2628  -11.5003    0.0000 O   0  0  0  0  0  0  0  0  0  0  0  0
   30.2400  -13.6500    0.0000 O   0  0  0  0  0  0  0  0  0  0  0  0
 18 19  2  0     0  0
 19 20  1  0     0  0
 20 21  2  0     0  0
 21 16  1  0     0  0
  3  4  2  0     0  0
 18 22  1  0     0  0
  4  5  1  0     0  0
  5  6  2  0     0  0
  6  1  1  0     0  0
  9 10  2  0     0  0
 10 11  1  0     0  0
 22 23  2  0     0  0
 23 24  1  0     0  0
 24 25  2  0     0  0
 25 26  1  0     0  0
 26 27  2  0     0  0
 27 22  1  0     0  0
 11 12  2  0     0  0
 12 13  1  0     0  0
 13 14  2  0     0  0
 14  9  1  0     0  0
 11 15  1  0     0  0
  5  7  1  0     0  0
 15 16  1  0     0  0
  7  8  1  0     0  0
 12 28  1  0     0  0
  1  2  2  0     0  0
  8  9  1  0     0  0
  2  3  1  0     0  0
 16 17  2  0     0  0
 17 18  1  0     0  0
  8 29  2  0     0  0
 30 31  1  0     0  0
  1 31  1  0     0  0
 30 32  2  0     0  0
 32 33  1  0     0  0
 33 34  2  0     0  0
 31 34  1  0     0  0
  3 35  1  0     0  0
 35 36  1  0     0  0
 33 37  1  0     0  0
 35 38  1  0     0  0
 35 39  1  0     0  0
M  END
