 
 
 
 28 29  0  0  1  0  0  0  0  0999 V2000
   13.8000  -16.3090    0.0000 C   0  0  0  0  0  0  0  0  0  0  0  0
   13.8000  -17.7726    0.0000 C   0  0  0  0  0  0  0  0  0  0  0  0
   15.0545  -18.4696    0.0000 C   0  0  0  0  0  0  0  0  0  0  0  0
   16.2393  -17.7726    0.0000 C   0  0  0  0  0  0  0  0  0  0  0  0
   16.2393  -16.3090    0.0000 C   0  0  0  0  0  0  0  0  0  0  0  0
   15.0545  -15.6121    0.0000 C   0  0  0  0  0  0  0  0  0  0  0  0
   17.4938  -18.4696    0.0000 C   0  0  0  0  0  0  0  0  0  0  0  0
   18.6787  -17.7726    0.0000 C   0  0  0  0  0  0  0  0  0  0  0  0
   18.6787  -16.3090    0.0000 B   0  0  0  0  0  0  0  0  0  0  0  0
   17.4938  -15.6121    0.0000 O   0  0  0  0  0  0  0  0  0  0  0  0
   15.0545  -14.2182    0.0000 C   0  0  0  0  0  0  0  0  0  0  0  0
   16.2393  -13.5212    0.0000 O   0  0  0  0  0  0  0  0  0  0  0  0
   19.8635  -15.6818    0.0000 O   0  0  0  0  0  0  0  0  0  0  0  0
   19.8635  -18.3999    0.0000 N   0  0  0  0  0  0  0  0  0  0  0  0
   21.0483  -17.7726    0.0000 C   0  0  0  0  0  0  0  0  0  0  0  0
   22.2331  -18.3999    0.0000 C   0  0  0  0  0  0  0  0  0  0  0  0
   23.4179  -17.7726    0.0000 C   0  0  0  0  0  0  0  0  0  0  0  0
   21.0483  -16.3090    0.0000 O   0  0  0  0  0  0  0  0  0  0  0  0
   13.8323  -13.5192    0.0000 O   0  0  0  0  0  0  0  0  0  0  0  0
   12.6475  -14.2098    0.0000 C   0  0  0  0  0  0  0  0  0  0  0  0
   11.4493  -13.5245    0.0000 O   0  0  0  0  0  0  0  0  0  0  0  0
   10.2690  -14.2125    0.0000 C   0  0  0  0  0  0  0  0  0  0  0  0
    9.0686  -13.5258    0.0000 C   0  0  0  0  0  0  0  0  0  0  0  0
   10.2747  -15.6099    0.0000 O   0  0  0  0  0  0  0  0  0  0  0  0
    7.8893  -14.2130    0.0000 C   0  0  0  0  0  0  0  0  0  0  0  0
    6.6885  -13.5260    0.0000 C   0  0  0  0  0  0  0  0  0  0  0  0
    9.0686  -12.1258    0.0000 C   0  0  0  0  0  0  0  0  0  0  0  0
    7.8733  -11.4353    0.0000 C   0  0  0  0  0  0  0  0  0  0  0  0
  1  2  2  0     0  0
  2  3  1  0     0  0
  3  4  2  0     0  0
  4  5  1  0     0  0
  5  6  2  0     0  0
  1  6  1  0     0  0
  4  7  1  0     0  0
  7  8  1  0     0  0
  8  9  1  0     0  0
  9 10  1  0     0  0
  5 10  1  0     0  0
  6 11  1  0     0  0
 11 12  2  0     0  0
  9 13  1  0     0  0
  8 14  1  1     0  0
 14 15  1  0     0  0
 15 16  1  0     0  0
 16 17  1  0     0  0
 15 18  2  0     0  0
 11 19  1  0     0  0
 19 20  1  0     0  0
 20 21  1  0     0  0
 21 22  1  0     0  0
 22 23  1  0     0  0
 22 24  2  0     0  0
 23 25  1  0     0  0
 25 26  1  0     0  0
 23 27  1  0     0  0
 27 28  1  0     0  0
M  END
