 
 
 
 37 38  0  0  1  0  0  0  0  0999 V2000
   15.4933  -18.9984    0.0000 C   0  0  0  0  0  0  0  0  0  0  0  0
   16.9655  -18.9984    0.0000 O   0  0  0  0  0  0  0  0  0  0  0  0
   17.3160  -17.6664    0.0000 C   0  0  0  0  0  0  0  0  0  0  0  0
   16.2644  -16.8251    0.0000 O   0  0  0  0  0  0  0  0  0  0  0  0
   15.1427  -17.6664    0.0000 C   0  0  0  0  0  0  0  0  0  0  0  0
   13.8107  -17.2458    0.0000 N   0  0  0  0  0  0  0  0  0  0  0  0
   11.3571  -15.8437    0.0000 C   0  0  0  0  0  0  0  0  0  0  0  0
   11.3571  -17.2458    0.0000 N   0  0  0  0  0  0  0  0  0  0  0  0
   12.6190  -18.0169    0.0000 C   0  0  0  0  0  0  0  0  0  0  0  0
   13.8107  -15.8437    0.0000 C   0  0  0  0  0  0  0  0  0  0  0  0
   12.6190  -15.1426    0.0000 C   0  0  0  0  0  0  0  0  0  0  0  0
   12.6190  -19.3489    0.0000 O   0  0  0  0  0  0  0  0  0  0  0  0
   10.1653  -15.1426    0.0000 N   0  0  0  0  0  0  0  0  0  0  0  0
   18.5078  -16.9653    0.0000 C   0  0  0  0  0  0  0  0  0  0  0  0
   19.6995  -17.6664    0.0000 O   0  0  0  0  0  0  0  0  0  0  0  0
   20.9614  -16.9653    0.0000 P   0  0  0  0  0  0  0  0  0  0  0  0
   22.1532  -16.2643    0.0000 O   0  0  0  0  0  0  0  0  0  0  0  0
   21.5924  -18.1571    0.0000 O   0  0  0  0  0  0  0  0  0  0  0  0
   20.9614  -15.5633    0.0000 N   0  0  0  0  0  0  0  0  0  0  0  0
   19.6995  -14.8622    0.0000 C   0  0  0  0  0  0  0  0  0  0  0  0
   18.5078  -15.5633    0.0000 C   0  0  0  0  0  0  0  0  0  0  0  0
   19.6995  -13.4601    0.0000 C   0  0  0  0  0  0  0  0  0  0  0  0
   18.5078  -12.7591    0.0000 O   0  0  0  0  0  0  0  0  0  0  0  0
   20.8913  -12.6890    0.0000 O   0  0  0  0  0  0  0  0  0  0  0  0
   17.3160  -13.3900    0.0000 C   0  0  0  0  0  0  0  0  0  0  0  0
   16.1242  -12.7591    0.0000 C   0  0  0  0  0  0  0  0  0  0  0  0
   17.3160  -14.8622    0.0000 C   0  0  0  0  0  0  0  0  0  0  0  0
   14.9324  -13.3900    0.0000 C   0  0  0  0  0  0  0  0  0  0  0  0
   13.6705  -12.7591    0.0000 C   0  0  0  0  0  0  0  0  0  0  0  0
   23.3450  -16.9653    0.0000 C   0  0  0  0  0  0  0  0  0  0  0  0
   23.3450  -18.3674    0.0000 C   0  0  0  0  0  0  0  0  0  0  0  0
   24.6069  -19.0685    0.0000 C   0  0  0  0  0  0  0  0  0  0  0  0
   25.7987  -18.3674    0.0000 C   0  0  0  0  0  0  0  0  0  0  0  0
   25.7987  -16.9653    0.0000 C   0  0  0  0  0  0  0  0  0  0  0  0
   24.6069  -16.2643    0.0000 C   0  0  0  0  0  0  0  0  0  0  0  0
   27.0605  -19.0685    0.0000 Br  0  0  0  0  0  0  0  0  0  0  0  0
   27.0900  -13.3700    0.0000 Cl  0  0  0  0  0  0  0  0  0  0  0  0
  1  2  1  0     0  0
  2  3  1  0     0  0
  3  4  1  0     0  0
  4  5  1  0     0  0
  1  5  1  0     0  0
  5  6  1  1     0  0
  7  8  2  0     0  0
  8  9  1  0     0  0
  9  6  1  0     0  0
  6 10  1  0     0  0
 10 11  2  0     0  0
  7 11  1  0     0  0
  9 12  2  0     0  0
  7 13  1  0     0  0
 14 15  1  0     0  0
  3 14  1  1     0  0
 15 16  1  0     0  0
 16 17  1  1     0  0
 16 18  2  0     0  0
 16 19  1  0     0  0
 19 20  1  0     0  0
 20 21  1  1     0  0
 20 22  1  0     0  0
 22 23  1  0     0  0
 22 24  2  0     0  0
 23 25  1  0     0  0
 25 26  1  0     0  0
 25 27  1  1     0  0
 26 28  1  0     0  0
 28 29  1  0     0  0
 17 30  1  0     0  0
 30 31  2  0     0  0
 31 32  1  0     0  0
 32 33  2  0     0  0
 33 34  1  0     0  0
 34 35  2  0     0  0
 30 35  1  0     0  0
 33 36  1  0     0  0
M  END
