 
 
 
 13 13  0  0  1  0  0  0  0  0999 V2000
   15.5977  -14.4836    0.0000 C   0  0  0  0  0  0  0  0  0  0  0  0
   15.5977  -15.8762    0.0000 C   0  0  0  0  0  0  0  0  0  0  0  0
   16.8511  -16.5725    0.0000 C   0  0  0  0  0  0  0  0  0  0  0  0
   18.0348  -15.8762    0.0000 C   0  0  0  0  0  0  0  0  0  0  0  0
   18.0348  -14.4836    0.0000 C   0  0  0  0  0  0  0  0  0  0  0  0
   16.8511  -13.7873    0.0000 O   0  0  0  0  0  0  0  0  0  0  0  0
   19.2185  -13.7873    0.0000 C   0  0  0  0  0  0  0  0  0  0  0  0
   20.4719  -14.4836    0.0000 N   0  0  0  0  0  0  0  0  0  0  0  0
   21.6556  -13.7873    0.0000 C   0  0  0  0  0  0  0  0  0  0  0  0
   17.1296  -17.9652    0.0000 C   0  0  0  0  0  0  0  0  0  0  0  0
   18.5222  -18.1044    0.0000 C   0  0  0  0  0  0  0  0  0  0  0  0
   19.0793  -16.8511    0.0000 S   0  0  0  0  0  0  0  0  0  0  0  0
   22.6800  -17.7800    0.0000 Cl  0  0  0  0  0  0  0  0  0  0  0  0
  1  2  1  0     0  0
  2  3  1  0     0  0
  3  4  2  0     0  0
  4  5  1  0     0  0
  5  6  1  0     0  0
  1  6  1  0     0  0
  5  7  1  1     0  0
  7  8  1  0     0  0
  8  9  1  0     0  0
  3 10  1  0     0  0
 10 11  2  0     0  0
 11 12  1  0     0  0
  4 12  1  0     0  0
M  END
