 
 
 
 58 58  0  0  0  0  0  0  0  0999 V2000
   17.4046  -14.3499    0.0000 N   0  0  0  0  0  0  0  0  0  0  0  0
   19.5920  -16.3385    0.0000 N   0  0  0  0  0  0  0  0  0  0  0  0
   18.7303  -13.6871    0.0000 C   0  0  0  0  0  0  0  0  0  0  0  0
   19.9234  -14.5488    0.0000 C   0  0  0  0  0  0  0  0  0  0  0  0
   15.2172  -16.3385    0.0000 N   0  0  0  0  0  0  0  0  0  0  0  0
   16.0126  -13.6871    0.0000 C   0  0  0  0  0  0  0  0  0  0  0  0
   14.8857  -14.6814    0.0000 C   0  0  0  0  0  0  0  0  0  0  0  0
   17.4046  -18.1944    0.0000 N   0  0  0  0  0  0  0  0  0  0  0  0
   15.0183  -17.9294    0.0000 C   0  0  0  0  0  0  0  0  0  0  0  0
   18.5314  -18.8573    0.0000 C   0  0  0  0  0  0  0  0  0  0  0  0
   19.7909  -17.8630    0.0000 C   0  0  0  0  0  0  0  0  0  0  0  0
   16.2778  -18.8573    0.0000 C   0  0  0  0  0  0  0  0  0  0  0  0
   16.2778  -20.1830    0.0000 C   0  0  0  0  0  0  0  0  0  0  0  0
   17.4046  -20.8458    0.0000 C   0  0  0  0  0  0  0  0  0  0  0  0
   18.5314  -20.1830    0.0000 C   0  0  0  0  0  0  0  0  0  0  0  0
   20.9172  -16.3076    0.0000 C   0  0  0  0  0  0  0  0  0  0  0  0
   13.8924  -16.3206    0.0000 C   0  0  0  0  0  0  0  0  0  0  0  0
   13.2059  -17.4732    0.0000 C   0  0  0  0  0  0  0  0  0  0  0  0
   13.2524  -15.1770    0.0000 C   0  0  0  0  0  0  0  0  0  0  0  0
   21.6207  -17.4624    0.0000 C   0  0  0  0  0  0  0  0  0  0  0  0
   21.5403  -15.0975    0.0000 C   0  0  0  0  0  0  0  0  0  0  0  0
   22.9720  -17.4263    0.0000 O   0  0  0  0  0  0  0  0  0  0  0  0
   22.8399  -15.1375    0.0000 C   0  0  0  0  0  0  0  0  0  0  0  0
   11.9030  -15.1594    0.0000 O   0  0  0  0  0  0  0  0  0  0  0  0
   14.4322  -13.6727    0.0000 O   0  5  0  0  0  0  0  0  0  0  0  0
   13.8550  -18.6337    0.0000 C   0  0  0  0  0  0  0  0  0  0  0  0
   13.1579  -19.8040    0.0000 C   0  0  0  0  0  0  0  0  0  0  0  0
   20.6094  -18.9535    0.0000 O   0  5  0  0  0  0  0  0  0  0  0  0
   23.4723  -13.9802    0.0000 C   0  0  0  0  0  0  0  0  0  0  0  0
   24.8285  -13.9489    0.0000 N   0  0  0  0  0  0  0  0  0  0  0  0
   22.7789  -12.8416    0.0000 O   0  0  0  0  0  0  0  0  0  0  0  0
   25.5191  -15.0838    0.0000 C   0  0  0  0  0  0  0  0  0  0  0  0
   26.8167  -15.1244    0.0000 C   0  0  0  0  0  0  0  0  0  0  0  0
   27.5175  -16.2046    0.0000 C   0  0  0  0  0  0  0  0  0  0  0  0
   27.4424  -13.9102    0.0000 O   0  0  0  0  0  0  0  0  0  0  0  0
   28.8715  -16.2436    0.0000 O   0  0  0  0  0  0  0  0  0  0  0  0
   17.4046  -13.0242    0.0000 C   0  0  0  0  0  0  0  0  0  0  0  0
   18.5527  -12.3614    0.0000 C   0  0  0  0  0  0  0  0  0  0  0  0
   19.8964  -13.0152    0.0000 O   0  5  0  0  0  0  0  0  0  0  0  0
   18.5528  -11.0359    0.0000 O   0  0  0  0  0  0  0  0  0  0  0  0
   16.2565  -12.3614    0.0000 C   0  0  0  0  0  0  0  0  0  0  0  0
   15.1245  -13.0152    0.0000 C   0  0  0  0  0  0  0  0  0  0  0  0
   14.0002  -12.3660    0.0000 C   0  0  0  0  0  0  0  0  0  0  0  0
   12.8722  -13.0175    0.0000 N   0  0  0  0  0  0  0  0  0  0  0  0
   13.9999  -11.0359    0.0000 O   0  0  0  0  0  0  0  0  0  0  0  0
   11.7457  -12.3672    0.0000 C   0  0  0  0  0  0  0  0  0  0  0  0
   10.6189  -13.0181    0.0000 C   0  0  0  0  0  0  0  0  0  0  0  0
    9.4919  -12.3675    0.0000 C   0  0  0  0  0  0  0  0  0  0  0  0
    8.3652  -13.0183    0.0000 O   0  0  0  0  0  0  0  0  0  0  0  0
   10.6189  -14.3497    0.0000 O   0  0  0  0  0  0  0  0  0  0  0  0
   11.8367  -19.8564    0.0000 N   0  0  0  0  0  0  0  0  0  0  0  0
   13.7982  -20.9485    0.0000 O   0  0  0  0  0  0  0  0  0  0  0  0
   11.1893  -18.6990    0.0000 C   0  0  0  0  0  0  0  0  0  0  0  0
    9.8490  -18.6761    0.0000 C   0  0  0  0  0  0  0  0  0  0  0  0
    9.1376  -17.5392    0.0000 C   0  0  0  0  0  0  0  0  0  0  0  0
    9.2345  -19.8335    0.0000 O   0  0  0  0  0  0  0  0  0  0  0  0
    9.7581  -16.3701    0.0000 O   0  0  0  0  0  0  0  0  0  0  0  0
   17.0800  -16.2400    0.0000 Gd  0  1  0  0  0  0  0  0  0  0  0  0
  1  3  1  0     0  0
  3  4  1  0     0  0
  2  4  1  0     0  0
  1  6  1  0     0  0
  6  7  1  0     0  0
  5  7  1  0     0  0
  5  9  1  0     0  0
  8 10  2  0     0  0
 10 11  1  0     0  0
  2 11  1  0     0  0
  8 12  1  0     0  0
 12  9  1  0     0  0
 12 13  2  0     0  0
 13 14  1  0     0  0
 14 15  2  0     0  0
 15 10  1  0     0  0
  2 16  1  0     0  0
  5 17  1  0     0  0
 17 18  1  0     0  0
 17 19  1  0     0  0
 16 20  1  0     0  0
 16 21  1  0     0  0
 20 22  2  0     0  0
 21 23  1  0     0  0
 19 24  2  0     0  0
 19 25  1  0     0  0
 18 26  1  0     0  0
 26 27  1  0     0  0
 20 28  1  0     0  0
 23 29  1  0     0  0
 29 30  1  0     0  0
 29 31  2  0     0  0
 30 32  1  0     0  0
 32 33  1  0     0  0
 33 34  1  0     0  0
 33 35  1  0     0  0
 34 36  1  0     0  0
  1 37  1  0     0  0
 37 38  1  0     0  0
 38 39  1  0     0  0
 38 40  2  0     0  0
 37 41  1  0     0  0
 41 42  1  0     0  0
 42 43  1  0     0  0
 43 44  1  0     0  0
 43 45  2  0     0  0
 44 46  1  0     0  0
 46 47  1  0     0  0
 47 48  1  0     0  0
 48 49  1  0     0  0
 47 50  1  0     0  0
 27 51  1  0     0  0
 27 52  2  0     0  0
 51 53  1  0     0  0
 53 54  1  0     0  0
 54 55  1  0     0  0
 54 56  1  0     0  0
 55 57  1  0     0  0
M  CHG  4  25  -1  28  -1  39  -1  58   3
M  END
