 
 
 
 55 60  0  0  1  0  0  0  0  0999 V2000
   13.6500  -16.3800    0.0000 N   0  0  0  0  0  0  0  0  0  0  0  0
   15.0500  -16.3800    0.0000 C   0  0  0  0  0  0  0  0  0  0  0  0
   12.9500  -15.1676    0.0000 C   0  0  0  0  0  0  0  0  0  0  0  0
   12.9500  -17.5924    0.0000 C   0  0  0  0  0  0  0  0  0  0  0  0
   15.7500  -15.1676    0.0000 C   0  0  0  0  0  0  0  0  0  0  0  0
   13.6404  -18.7879    0.0000 C   0  0  0  0  0  0  0  0  0  0  0  0
   11.5500  -15.1676    0.0000 C   0  0  0  0  0  0  0  0  0  0  0  0
   10.8596  -13.9721    0.0000 C   0  0  0  0  0  0  0  0  0  0  0  0
    9.4596  -13.9722    0.0000 C   0  0  0  0  0  0  0  0  0  0  0  0
    8.7597  -15.1847    0.0000 C   0  0  0  0  0  0  0  0  0  0  0  0
    9.4501  -16.3802    0.0000 C   0  0  0  0  0  0  0  0  0  0  0  0
   10.8501  -16.3801    0.0000 C   0  0  0  0  0  0  0  0  0  0  0  0
   17.1498  -15.1676    0.0000 C   0  0  0  0  0  0  0  0  0  0  0  0
   17.8498  -13.9551    0.0000 C   0  0  0  0  0  0  0  0  0  0  0  0
   17.1498  -12.7427    0.0000 C   0  0  0  0  0  0  0  0  0  0  0  0
   15.7500  -12.7427    0.0000 C   0  0  0  0  0  0  0  0  0  0  0  0
   15.0500  -13.9551    0.0000 C   0  0  0  0  0  0  0  0  0  0  0  0
   12.9549  -19.9753    0.0000 C   0  0  0  0  0  0  0  0  0  0  0  0
   13.6550  -21.1877    0.0000 C   0  0  0  0  0  0  0  0  0  0  0  0
   15.0550  -21.1876    0.0000 C   0  0  0  0  0  0  0  0  0  0  0  0
   15.7404  -20.0003    0.0000 C   0  0  0  0  0  0  0  0  0  0  0  0
   15.0404  -18.7879    0.0000 C   0  0  0  0  0  0  0  0  0  0  0  0
   12.9440  -22.4190    0.0000 C   0  0  0  0  0  0  0  0  0  0  0  0
   13.6373  -23.6197    0.0000 C   0  0  0  0  0  0  0  0  0  0  0  0
   15.0497  -23.6199    0.0000 C   0  0  0  0  0  0  0  0  0  0  0  0
   12.9359  -24.8000    0.0000 C   0  0  0  0  0  0  0  0  0  0  0  0
   15.7631  -22.3852    0.0000 O   0  0  0  0  0  0  0  0  0  0  0  0
   15.7367  -24.8100    0.0000 O   0  0  0  0  0  0  0  0  0  0  0  0
   11.8112  -23.9656    0.0000 C   0  0  0  0  0  0  0  0  0  0  0  0
   10.6701  -24.7775    0.0000 C   0  0  0  0  0  0  0  0  0  0  0  0
   11.0896  -26.1136    0.0000 N   0  0  0  0  0  0  0  0  0  0  0  0
   12.4900  -26.1275    0.0000 C   0  0  0  0  0  0  0  0  0  0  0  0
   14.2122  -25.3856    0.0000 H   0  0  0  0  0  0  0  0  0  0  0  0
   19.2498  -13.9551    0.0000 C   0  0  0  0  0  0  0  0  0  0  0  0
   19.9609  -12.7239    0.0000 C   0  0  0  0  0  0  0  0  0  0  0  0
   21.3499  -12.7242    0.0000 C   0  0  0  0  0  0  0  0  0  0  0  0
   19.2653  -11.5189    0.0000 C   0  0  0  0  0  0  0  0  0  0  0  0
   17.8504  -11.5184    0.0000 O   0  0  0  0  0  0  0  0  0  0  0  0
   19.9483  -10.3366    0.0000 O   0  0  0  0  0  0  0  0  0  0  0  0
   22.1801  -13.8673    0.0000 C   0  0  0  0  0  0  0  0  0  0  0  0
   23.5239  -13.4310    0.0000 C   0  0  0  0  0  0  0  0  0  0  0  0
   23.5241  -12.0182    0.0000 N   0  0  0  0  0  0  0  0  0  0  0  0
   22.1805  -11.5814    0.0000 C   0  0  0  0  0  0  0  0  0  0  0  0
   20.9876  -11.3719    0.0000 H   0  0  0  0  0  0  0  0  0  0  0  0
    8.7689  -12.7768    0.0000 C   0  0  0  0  0  0  0  0  0  0  0  0
    7.3504  -12.7769    0.0000 C   0  0  0  0  0  0  0  0  0  0  0  0
    6.6644  -11.5894    0.0000 C   0  0  0  0  0  0  0  0  0  0  0  0
    6.6359  -14.0142    0.0000 C   0  0  0  0  0  0  0  0  0  0  0  0
    5.2501  -14.0139    0.0000 O   0  0  0  0  0  0  0  0  0  0  0  0
    7.3331  -15.2220    0.0000 O   0  0  0  0  0  0  0  0  0  0  0  0
    7.2197  -10.3412    0.0000 C   0  0  0  0  0  0  0  0  0  0  0  0
    6.2042   -9.4273    0.0000 C   0  0  0  0  0  0  0  0  0  0  0  0
    5.0212  -10.1107    0.0000 N   0  0  0  0  0  0  0  0  0  0  0  0
    5.3056  -11.4469    0.0000 C   0  0  0  0  0  0  0  0  0  0  0  0
    5.6744  -12.5793    0.0000 H   0  0  0  0  0  0  0  0  0  0  0  0
  1  2  1  0     0  0
  1  3  1  0     0  0
  1  4  1  0     0  0
  2  5  1  0     0  0
  4  6  1  0     0  0
  3  7  1  0     0  0
  7  8  2  0     0  0
  8  9  1  0     0  0
  9 10  2  0     0  0
 10 11  1  0     0  0
 11 12  2  0     0  0
  7 12  1  0     0  0
  5 13  2  0     0  0
 13 14  1  0     0  0
 14 15  2  0     0  0
 15 16  1  0     0  0
 16 17  2  0     0  0
  5 17  1  0     0  0
  6 18  2  0     0  0
 18 19  1  0     0  0
 19 20  2  0     0  0
 20 21  1  0     0  0
 21 22  2  0     0  0
  6 22  1  0     0  0
 19 23  1  0     0  0
 24 23  1  6     0  0
 24 25  1  0     0  0
 24 26  1  0     0  0
 25 27  2  0     0  0
 25 28  1  0     0  0
 26 29  1  0     0  0
 29 30  1  0     0  0
 30 31  1  0     0  0
 31 32  1  0     0  0
 26 32  1  0     0  0
 26 33  1  1     0  0
 14 34  1  0     0  0
 35 34  1  6     0  0
 35 36  1  0     0  0
 35 37  1  0     0  0
 37 38  2  0     0  0
 37 39  1  0     0  0
 36 40  1  0     0  0
 40 41  1  0     0  0
 41 42  1  0     0  0
 42 43  1  0     0  0
 36 43  1  0     0  0
 36 44  1  1     0  0
  9 45  1  0     0  0
 46 45  1  6     0  0
 46 47  1  0     0  0
 46 48  1  0     0  0
 48 49  1  0     0  0
 48 50  2  0     0  0
 47 51  1  0     0  0
 51 52  1  0     0  0
 52 53  1  0     0  0
 53 54  1  0     0  0
 47 54  1  0     0  0
 47 55  1  1     0  0
M  END
