 
 
 
 26 21  0  0  1  0  0  0  0  0999 V2000
    7.1409  -16.3120    0.0000 C   0  0  0  0  0  0  0  0  0  0  0  0
    8.3310  -15.6119    0.0000 C   0  0  0  0  0  0  0  0  0  0  0  0
    9.5912  -16.3120    0.0000 N   0  3  0  0  0  0  0  0  0  0  0  0
   10.7813  -15.6119    0.0000 C   0  0  0  0  0  0  0  0  0  0  0  0
   11.9715  -16.3120    0.0000 C   0  0  0  0  0  0  0  0  0  0  0  0
   13.2316  -15.6119    0.0000 C   0  0  0  0  0  0  0  0  0  0  0  0
   14.4218  -16.3120    0.0000 C   0  0  0  0  0  0  0  0  0  0  0  0
   15.6119  -15.6119    0.0000 N   0  3  0  0  0  0  0  0  0  0  0  0
   16.8721  -16.3120    0.0000 C   0  0  0  0  0  0  0  0  0  0  0  0
   18.0623  -15.6119    0.0000 C   0  0  0  0  0  0  0  0  0  0  0  0
   19.2524  -16.3120    0.0000 C   0  0  0  0  0  0  0  0  0  0  0  0
   20.5126  -15.6119    0.0000 C   0  0  0  0  0  0  0  0  0  0  0  0
   21.7027  -16.3120    0.0000 N   0  3  0  0  0  0  0  0  0  0  0  0
   22.8929  -15.6119    0.0000 C   0  0  0  0  0  0  0  0  0  0  0  0
   24.0830  -16.3120    0.0000 C   0  0  0  0  0  0  0  0  0  0  0  0
   25.3432  -15.6119    0.0000 C   0  0  0  0  0  0  0  0  0  0  0  0
   26.5333  -16.3120    0.0000 C   0  0  0  0  0  0  0  0  0  0  0  0
   27.7235  -15.6119    0.0000 N   0  3  0  0  0  0  0  0  0  0  0  0
   28.9836  -16.3120    0.0000 C   0  0  0  0  0  0  0  0  0  0  0  0
   30.1738  -15.6119    0.0000 C   0  0  0  0  0  0  0  0  0  0  0  0
   13.2316  -14.2118    0.0000 O   0  0  0  0  0  0  0  0  0  0  0  0
   24.0830  -17.7122    0.0000 O   0  0  0  0  0  0  0  0  0  0  0  0
   27.6500  -17.9200    0.0000 Cl  0  5  0  0  0  0  0  0  0  0  0  0
   21.6300  -14.0700    0.0000 Cl  0  5  0  0  0  0  0  0  0  0  0  0
   15.5400  -17.9200    0.0000 Cl  0  5  0  0  0  0  0  0  0  0  0  0
    9.4500  -14.0700    0.0000 Cl  0  5  0  0  0  0  0  0  0  0  0  0
  1  2  1  0     0  0
  2  3  1  0     0  0
  3  4  1  0     0  0
  4  5  1  0     0  0
  5  6  1  0     0  0
  6  7  1  0     0  0
  7  8  1  0     0  0
  8  9  1  0     0  0
  9 10  1  0     0  0
 10 11  1  0     0  0
 11 12  1  0     0  0
 12 13  1  0     0  0
 13 14  1  0     0  0
 14 15  1  0     0  0
 15 16  1  0     0  0
 16 17  1  0     0  0
 17 18  1  0     0  0
 18 19  1  0     0  0
 19 20  1  0     0  0
  6 21  1  6     0  0
 15 22  1  6     0  0
M  CHG  8   3   1   8   1  13   1  18   1  23  -1  24  -1  25  -1  26  -1
M  END
