 
 
 
 39 44  0  0  1  0  0  0  0  0999 V2000
   22.5970  -24.5816    0.0000 C   0  0  0  0  0  0  0  0  0  0  0  0
   22.5970  -23.2447    0.0000 C   0  0  0  0  0  0  0  0  0  0  0  0
   23.7932  -22.5410    0.0000 C   0  0  0  0  0  0  0  0  0  0  0  0
   25.0598  -23.2447    0.0000 C   0  0  0  0  0  0  0  0  0  0  0  0
   25.0598  -24.5816    0.0000 C   0  0  0  0  0  0  0  0  0  0  0  0
   23.7932  -25.2853    0.0000 C   0  0  0  0  0  0  0  0  0  0  0  0
   26.2561  -25.2853    0.0000 F   0  0  0  0  0  0  0  0  0  0  0  0
   21.4008  -22.5410    0.0000 C   0  0  0  0  0  0  0  0  0  0  0  0
   20.2046  -23.2447    0.0000 C   0  0  0  0  0  0  0  0  0  0  0  0
   20.2046  -24.5816    0.0000 C   0  0  0  0  0  0  0  0  0  0  0  0
   18.9380  -25.2853    0.0000 N   0  0  0  0  0  0  0  0  0  0  0  0
   17.7418  -24.5816    0.0000 C   0  0  0  0  0  0  0  0  0  0  0  0
   17.7418  -23.2447    0.0000 N   0  0  0  0  0  0  0  0  0  0  0  0
   18.9380  -22.5410    0.0000 C   0  0  0  0  0  0  0  0  0  0  0  0
   16.5455  -25.2853    0.0000 N   0  0  0  0  0  0  0  0  0  0  0  0
   16.5455  -26.6926    0.0000 C   0  0  0  0  0  0  0  0  0  0  0  0
   15.2789  -27.3963    0.0000 C   0  0  0  0  0  0  0  0  0  0  0  0
   14.1531  -26.6926    0.0000 N   0  0  0  0  0  0  0  0  0  0  0  0
   14.1531  -25.2853    0.0000 C   0  0  0  0  0  0  0  0  0  0  0  0
   15.2789  -24.5816    0.0000 C   0  0  0  0  0  0  0  0  0  0  0  0
   12.9569  -27.3963    0.0000 C   0  0  0  0  0  0  0  0  0  0  0  0
   12.9569  -28.8036    0.0000 N   0  0  0  0  0  0  0  0  0  0  0  0
   11.6903  -29.5073    0.0000 C   0  0  0  0  0  0  0  0  0  0  0  0
   10.4941  -28.8036    0.0000 N   0  0  0  0  0  0  0  0  0  0  0  0
   10.4941  -27.3963    0.0000 N   0  0  0  0  0  0  0  0  0  0  0  0
   11.6903  -26.6926    0.0000 C   0  0  0  0  0  0  0  0  0  0  0  0
    9.4386  -26.4815    0.0000 C   0  0  0  0  0  0  0  0  0  0  0  0
   10.0015  -25.1446    0.0000 C   0  0  0  0  0  0  0  0  0  0  0  0
   11.4088  -25.2853    0.0000 C   0  0  0  0  0  0  0  0  0  0  0  0
    9.2978  -24.0187    0.0000 C   0  0  0  0  0  0  0  0  0  0  0  0
    7.8905  -23.8780    0.0000 C   0  0  0  0  0  0  0  0  0  0  0  0
    7.6091  -22.4706    0.0000 N   0  0  0  0  0  0  0  0  0  0  0  0
    8.8053  -21.7670    0.0000 N   0  0  0  0  0  0  0  0  0  0  0  0
    9.8608  -22.6817    0.0000 C   0  0  0  0  0  0  0  0  0  0  0  0
    8.9460  -20.3597    0.0000 C   0  0  0  0  0  0  0  0  0  0  0  0
   20.4157  -21.5559    0.0000 C   0  0  0  0  0  0  0  0  0  0  0  0
   22.3859  -21.5559    0.0000 N   0  0  0  0  0  0  0  0  0  0  0  0
   10.2297  -19.7802    0.0000 C   0  0  0  0  0  0  0  0  0  0  0  0
   11.3741  -20.6025    0.0000 O   0  0  0  0  0  0  0  0  0  0  0  0
  1  2  2  0     0  0
  2  3  1  0     0  0
  3  4  2  0     0  0
  4  5  1  0     0  0
  5  6  2  0     0  0
  1  6  1  0     0  0
  5  7  1  0     0  0
  2  8  1  0     0  0
  8  9  1  0     0  0
  9 10  2  0     0  0
 10 11  1  0     0  0
 11 12  2  0     0  0
 12 13  1  0     0  0
 13 14  2  0     0  0
  9 14  1  0     0  0
 12 15  1  0     0  0
 15 16  1  0     0  0
 16 17  1  0     0  0
 17 18  1  0     0  0
 18 19  1  0     0  0
 19 20  1  0     0  0
 15 20  1  0     0  0
 18 21  1  0     0  0
 21 22  2  0     0  0
 22 23  1  0     0  0
 23 24  2  0     0  0
 24 25  1  0     0  0
 25 26  1  0     0  0
 21 26  1  0     0  0
 25 27  1  0     0  0
 27 28  2  0     0  0
 28 29  1  0     0  0
 26 29  2  0     0  0
 28 30  1  0     0  0
 30 31  1  0     0  0
 31 32  2  0     0  0
 32 33  1  0     0  0
 33 34  1  0     0  0
 30 34  2  0     0  0
 33 35  1  0     0  0
  8 36  1  6     0  0
  8 37  1  1     0  0
 35 38  1  0     0  0
 38 39  1  0     0  0
M  END
