 
 
 
 45 47  0  0  1  0  0  0  0  0999 V2000
   16.1000   -9.1700    0.0000 O   0  5  0  0  0  0  0  0  0  0  0  0
   12.5300   -8.4700    0.0000 C   0  0  0  0  0  0  0  0  0  0  0  0
   13.7200   -9.1700    0.0000 C   0  0  0  0  0  0  0  0  0  0  0  0
   14.9100   -8.4700    0.0000 C   0  0  0  0  0  0  0  0  0  0  0  0
   14.9100   -7.0700    0.0000 O   0  0  0  0  0  0  0  0  0  0  0  0
   17.9200  -19.5300    0.0000 O   0  5  0  0  0  0  0  0  0  0  0  0
   19.1324  -20.2300    0.0000 C   0  0  0  0  0  0  0  0  0  0  0  0
   20.3279  -19.5396    0.0000 C   0  0  0  0  0  0  0  0  0  0  0  0
   19.1325  -21.6298    0.0000 O   0  0  0  0  0  0  0  0  0  0  0  0
   21.5153  -20.2251    0.0000 C   0  0  0  0  0  0  0  0  0  0  0  0
   16.0300  -14.4200    0.0000 Mn  0  0  0  0  0  0  0  0  0  0  0  0
   19.3900  -13.1600    0.0000 C   0  0  0  0  0  0  0  0  0  0  0  0
   19.3900  -14.5600    0.0000 C   0  0  0  0  0  0  0  0  0  0  0  0
   20.6024  -15.2600    0.0000 C   0  0  0  0  0  0  0  0  0  0  0  0
   21.8149  -14.5600    0.0000 C   0  0  0  0  0  0  0  0  0  0  0  0
   21.8149  -13.1600    0.0000 C   0  0  0  0  0  0  0  0  0  0  0  0
   20.6024  -12.4600    0.0000 C   0  0  0  0  0  0  0  0  0  0  0  0
   17.6400  -12.1576    0.0000 N   0  0  0  0  0  0  0  0  0  0  0  0
   14.2701  -12.3801    0.0000 N   0  0  0  0  0  0  0  0  0  0  0  0
   13.5701  -15.6899    0.0000 N   0  0  0  0  0  0  0  0  0  0  0  0
   18.5024  -15.9600    0.0000 N   0  0  0  0  0  0  0  0  0  0  0  0
   16.3923  -17.7323    0.0000 N   0  0  0  0  0  0  0  0  0  0  0  0
   14.6306  -11.0346    0.0000 C   0  0  0  0  0  0  0  0  0  0  0  0
   13.6407  -10.0446    0.0000 C   0  0  0  0  0  0  0  0  0  0  0  0
   12.2884  -10.4069    0.0000 C   0  0  0  0  0  0  0  0  0  0  0  0
   11.9278  -11.7523    0.0000 C   0  0  0  0  0  0  0  0  0  0  0  0
   12.9177  -12.7423    0.0000 C   0  0  0  0  0  0  0  0  0  0  0  0
   12.2054  -14.1646    0.0000 C   0  0  0  0  0  0  0  0  0  0  0  0
   16.7201  -10.6776    0.0000 C   0  0  0  0  0  0  0  0  0  0  0  0
   12.6700  -18.2700    0.0000 C   0  0  0  0  0  0  0  0  0  0  0  0
   12.6700  -19.6700    0.0000 C   0  0  0  0  0  0  0  0  0  0  0  0
   13.8824  -20.3700    0.0000 C   0  0  0  0  0  0  0  0  0  0  0  0
   15.0949  -19.6700    0.0000 C   0  0  0  0  0  0  0  0  0  0  0  0
   15.0949  -18.2700    0.0000 C   0  0  0  0  0  0  0  0  0  0  0  0
   13.8824  -17.5700    0.0000 C   0  0  0  0  0  0  0  0  0  0  0  0
   18.1646  -18.0946    0.0000 C   0  0  0  0  0  0  0  0  0  0  0  0
   18.9348  -17.1023    0.0000 C   0  0  0  0  0  0  0  0  0  0  0  0
   19.3900  -11.7600    0.0000 H   0  0  0  0  0  0  0  0  0  0  0  0
   19.7523  -15.9123    0.0000 H   0  0  0  0  0  0  0  0  0  0  0  0
   18.2123  -13.6499    0.0000 H   0  0  0  0  0  0  0  0  0  0  0  0
   17.9301  -14.4677    0.0000 H   0  0  0  0  0  0  0  0  0  0  0  0
   15.4823  -16.0999    0.0000 H   0  0  0  0  0  0  0  0  0  0  0  0
   14.8400  -17.1699    0.0000 H   0  0  0  0  0  0  0  0  0  0  0  0
   12.6700  -16.8700    0.0000 H   0  0  0  0  0  0  0  0  0  0  0  0
   16.0848  -19.2599    0.0000 H   0  0  0  0  0  0  0  0  0  0  0  0
  2  3  1  0     0  0
  3  4  1  0     0  0
  4  1  1  0     0  0
  4  5  2  0     0  0
  6  7  1  0     0  0
  7  8  1  0     0  0
  7  9  2  0     0  0
  8 10  1  0     0  0
 11  6  1  6     0  0
 11  1  1  1     0  0
 12 13  1  0     0  0
 13 14  1  0     0  0
 14 15  1  0     0  0
 15 16  1  0     0  0
 16 17  1  0     0  0
 12 17  1  0     0  0
 19 23  2  0     0  0
 23 24  1  0     0  0
 24 25  2  0     0  0
 25 26  1  0     0  0
 26 27  2  0     0  0
 19 27  1  0     0  0
 27 28  1  0     0  0
 20 28  1  0     0  0
 18 29  1  0     0  0
 29 23  1  0     0  0
 12 18  1  0     0  0
 13 21  1  0     0  0
 30 31  1  0     0  0
 31 32  1  0     0  0
 32 33  1  0     0  0
 33 34  1  0     0  0
 34 35  1  0     0  0
 30 35  1  0     0  0
 22 34  1  0     0  0
 20 35  1  0     0  0
 22 36  1  0     0  0
 21 37  1  0     0  0
 37 36  1  0     0  0
 12 38  1  6     0  0
 13 39  1  1     0  0
 18 40  1  1     0  0
 21 41  1  6     0  0
 22 42  1  1     0  0
 20 43  1  6     0  0
 35 44  1  1     0  0
 34 45  1  6     0  0
M  CHG  2   1  -1   6  -1
M  END
