 
 
 
 49 54  0  0  1  0  0  0  0  0999 V2000
   18.2700  -13.3000    0.0000 C   0  0  0  0  0  0  0  0  0  0  0  0
   18.2700  -14.7000    0.0000 N   0  0  0  0  0  0  0  0  0  0  0  0
   17.0800  -15.4000    0.0000 C   0  0  0  0  0  0  0  0  0  0  0  0
   15.8200  -14.7000    0.0000 C   0  0  0  0  0  0  0  0  0  0  0  0
   15.8200  -13.3000    0.0000 C   0  0  0  0  0  0  0  0  0  0  0  0
   17.0800  -12.6000    0.0000 C   0  0  0  0  0  0  0  0  0  0  0  0
   19.4600  -15.4000    0.0000 C   0  0  0  0  0  0  0  0  0  0  0  0
   20.6500  -14.7000    0.0000 C   0  0  0  0  0  0  0  0  0  0  0  0
   20.6500  -13.3000    0.0000 C   0  0  0  0  0  0  0  0  0  0  0  0
   21.9100  -12.6000    0.0000 C   0  0  0  0  0  0  0  0  0  0  0  0
   23.1000  -13.3000    0.0000 C   0  0  0  0  0  0  0  0  0  0  0  0
   23.1000  -14.7000    0.0000 C   0  0  0  0  0  0  0  0  0  0  0  0
   21.9100  -15.4000    0.0000 C   0  0  0  0  0  0  0  0  0  0  0  0
   21.9100  -16.8000    0.0000 C   0  0  0  0  0  0  0  0  0  0  0  0
   24.4300  -12.8800    0.0000 N   0  0  0  0  0  0  0  0  0  0  0  0
   25.2700  -14.0000    0.0000 C   0  0  0  0  0  0  0  0  0  0  0  0
   24.4300  -15.1200    0.0000 C   0  0  0  0  0  0  0  0  0  0  0  0
   26.6700  -14.0000    0.0000 C   0  0  0  0  0  0  0  0  0  0  0  0
   28.0700  -14.0000    0.0000 N   0  0  0  0  0  0  0  0  0  0  0  0
   24.8500  -11.5500    0.0000 C   0  0  0  0  0  0  0  0  0  0  0  0
   26.2500  -11.2700    0.0000 C   0  0  0  0  0  0  0  0  0  0  0  0
   27.1600  -12.3200    0.0000 C   0  0  0  0  0  0  0  0  0  0  0  0
   26.6700   -9.9400    0.0000 N   0  0  0  0  0  0  0  0  0  0  0  0
   25.7600   -8.8900    0.0000 C   0  0  0  0  0  0  0  0  0  0  0  0
   26.1800   -7.5600    0.0000 C   0  0  0  0  0  0  0  0  0  0  0  0
   27.5100   -7.2800    0.0000 N   0  0  0  0  0  0  0  0  0  0  0  0
   28.4900   -8.3300    0.0000 C   0  0  0  0  0  0  0  0  0  0  0  0
   28.0000   -9.6600    0.0000 C   0  0  0  0  0  0  0  0  0  0  0  0
   27.9300   -5.9500    0.0000 S   0  0  0  0  0  0  0  0  0  0  0  0
   28.3500   -4.6200    0.0000 C   0  0  0  0  0  0  0  0  0  0  0  0
   29.3300   -6.3000    0.0000 O   0  0  0  0  0  0  0  0  0  0  0  0
   26.6000   -5.6000    0.0000 O   0  0  0  0  0  0  0  0  0  0  0  0
   14.6300  -12.6000    0.0000 N   0  0  0  0  0  0  0  0  0  0  0  0
   14.6300  -11.2000    0.0000 C   0  0  0  0  0  0  0  0  0  0  0  0
   13.4400  -10.5000    0.0000 C   0  0  0  0  0  0  0  0  0  0  0  0
   13.4400   -9.1000    0.0000 C   0  0  0  0  0  0  0  0  0  0  0  0
   14.6300   -8.4000    0.0000 N   0  0  0  0  0  0  0  0  0  0  0  0
   15.8200   -9.1000    0.0000 C   0  0  0  0  0  0  0  0  0  0  0  0
   15.8200  -10.5000    0.0000 N   0  0  0  0  0  0  0  0  0  0  0  0
   17.0100   -8.4000    0.0000 N   0  0  0  0  0  0  0  0  0  0  0  0
   18.2000   -9.1000    0.0000 C   0  0  0  0  0  0  0  0  0  0  0  0
   12.1100  -10.9200    0.0000 C   0  0  0  0  0  0  0  0  0  0  0  0
   11.2700   -9.8000    0.0000 C   0  0  0  0  0  0  0  0  0  0  0  0
   12.1100   -8.6800    0.0000 S   0  0  0  0  0  0  0  0  0  0  0  0
    9.8700   -9.8000    0.0000 C   0  0  0  0  0  0  0  0  0  0  0  0
    9.1700   -8.6100    0.0000 C   0  0  0  0  0  0  0  0  0  0  0  0
   10.3600   -7.9100    0.0000 F   0  0  0  0  0  0  0  0  0  0  0  0
    7.9800   -9.3100    0.0000 F   0  0  0  0  0  0  0  0  0  0  0  0
    8.4700   -7.3500    0.0000 F   0  0  0  0  0  0  0  0  0  0  0  0
  1  2  1  0     0  0
  2  3  1  0     0  0
  3  4  1  0     0  0
  4  5  1  0     0  0
  5  6  1  0     0  0
  1  6  1  0     0  0
  2  7  1  0     0  0
  7  8  1  0     0  0
  8  9  2  0     0  0
  9 10  1  0     0  0
 10 11  2  0     0  0
 11 12  1  0     0  0
 12 13  2  0     0  0
  8 13  1  0     0  0
 13 14  1  0     0  0
 11 15  1  0     0  0
 15 16  1  0     0  0
 16 17  2  0     0  0
 12 17  1  0     0  0
 16 18  1  0     0  0
 18 19  3  0     0  0
 15 20  1  0     0  0
 20 21  1  0     0  0
 21 22  1  1     0  0
 21 23  1  0     0  0
 23 24  1  0     0  0
 24 25  1  0     0  0
 25 26  1  0     0  0
 26 27  1  0     0  0
 27 28  1  0     0  0
 23 28  1  0     0  0
 26 29  1  0     0  0
 29 30  1  0     0  0
 29 31  2  0     0  0
 29 32  2  0     0  0
  5 33  1  0     0  0
 33 34  1  0     0  0
 34 35  2  0     0  0
 35 36  1  0     0  0
 36 37  2  0     0  0
 37 38  1  0     0  0
 38 39  2  0     0  0
 34 39  1  0     0  0
 38 40  1  0     0  0
 40 41  1  0     0  0
 35 42  1  0     0  0
 42 43  2  0     0  0
 43 44  1  0     0  0
 36 44  1  0     0  0
 43 45  1  0     0  0
 45 46  1  0     0  0
 46 47  1  0     0  0
 46 48  1  0     0  0
 46 49  1  0     0  0
M  END
