 
     RDKit          2D

 43 48  0  0  0  0  0  0  0  0999 V2000
   23.1700  -17.7800    0.0000 C   0  0  0  0  0  0  0  0  0  0  0  0
   23.1700  -19.1800    0.0000 C   0  0  0  0  0  0  0  0  0  0  0  0
   21.9100  -19.8800    0.0000 C   0  0  0  0  0  0  0  0  0  0  0  0
   20.7200  -19.1800    0.0000 C   0  0  0  0  0  0  0  0  0  0  0  0
   20.7200  -17.7800    0.0000 C   0  0  0  0  0  0  0  0  0  0  0  0
   21.9100  -17.0800    0.0000 C   0  0  0  0  0  0  0  0  0  0  0  0
   19.5300  -19.8800    0.0000 O   0  0  0  0  0  0  0  0  0  0  0  0
   18.3400  -19.1800    0.0000 C   0  0  0  0  0  0  0  0  0  0  0  0
   17.1500  -19.8800    0.0000 C   0  0  0  0  0  0  0  0  0  0  0  0
   15.9600  -19.1800    0.0000 N   0  0  0  0  0  0  0  0  0  0  0  0
   14.7000  -19.7400    0.0000 C   0  0  0  0  0  0  0  0  0  0  0  0
   13.7900  -18.6900    0.0000 C   0  0  0  0  0  0  0  0  0  0  0  0
   14.4200  -17.5700    0.0000 C   0  0  0  0  0  0  0  0  0  0  0  0
   15.8200  -17.8500    0.0000 C   0  0  0  0  0  0  0  0  0  0  0  0
   14.0000  -16.1700    0.0000 C   0  0  0  0  0  0  0  0  0  0  0  0
   14.9800  -15.1900    0.0000 C   0  0  0  0  0  0  0  0  0  0  0  0
   16.3100  -15.4700    0.0000 C   0  0  0  0  0  0  0  0  0  0  0  0
   16.7300  -16.8000    0.0000 C   0  0  0  0  0  0  0  0  0  0  0  0
   14.2800  -21.0700    0.0000 C   0  0  0  0  0  0  0  0  0  0  0  0
   12.8800  -21.3500    0.0000 C   0  0  0  0  0  0  0  0  0  0  0  0
   11.9700  -20.3700    0.0000 C   0  0  0  0  0  0  0  0  0  0  0  0
   12.3900  -19.0400    0.0000 C   0  0  0  0  0  0  0  0  0  0  0  0
   24.3766  -17.0700    0.0000 C   0  0  0  0  0  0  0  0  0  0  0  0
   25.5863  -17.7553    0.0000 C   0  0  0  0  0  0  0  0  0  0  0  0
   26.8066  -17.0370    0.0000 C   0  0  0  0  0  0  0  0  0  0  0  0
   25.5976  -19.1798    0.0000 N   0  0  0  0  0  0  0  0  0  0  0  0
   26.8324  -19.8800    0.0000 C   0  0  0  0  0  0  0  0  0  0  0  0
   26.8434  -21.2796    0.0000 C   0  0  0  0  0  0  0  0  0  0  0  0
   28.0612  -21.9701    0.0000 C   0  0  0  0  0  0  0  0  0  0  0  0
   29.2682  -21.2607    0.0000 C   0  0  0  0  0  0  0  0  0  0  0  0
   29.2572  -19.8611    0.0000 C   0  0  0  0  0  0  0  0  0  0  0  0
   28.0394  -19.1706    0.0000 C   0  0  0  0  0  0  0  0  0  0  0  0
   25.6117  -22.0039    0.0000 C   0  0  0  0  0  0  0  0  0  0  0  0
   24.3898  -21.3116    0.0000 O   0  0  0  0  0  0  0  0  0  0  0  0
   25.6229  -23.3800    0.0000 C   0  0  0  0  0  0  0  0  0  0  0  0
   24.4141  -24.0912    0.0000 C   0  0  0  0  0  0  0  0  0  0  0  0
   24.4255  -25.4911    0.0000 C   0  0  0  0  0  0  0  0  0  0  0  0
   25.6436  -26.1812    0.0000 C   0  0  0  0  0  0  0  0  0  0  0  0
   26.7825  -25.4700    0.0000 C   0  0  0  0  0  0  0  0  0  0  0  0
   26.8411  -24.0701    0.0000 C   0  0  0  0  0  0  0  0  0  0  0  0
   28.0158  -17.7213    0.0000 O   0  0  0  0  0  0  0  0  0  0  0  0
   26.7943  -15.6101    0.0000 O   0  0  0  0  0  0  0  0  0  0  0  0
   25.6035  -27.5790    0.0000 F   0  0  0  0  0  0  0  0  0  0  0  0
  1  2  2  0
  2  3  1  0
  3  4  2  0
  4  5  1  0
  5  6  2  0
  1  6  1  0
  4  7  1  0
  7  8  1  0
  8  9  1  0
  9 10  1  0
 10 11  1  0
 11 12  2  0
 12 13  1  0
 13 14  1  0
 10 14  1  0
 13 15  2  0
 15 16  1  0
 16 17  2  0
 17 18  1  0
 14 18  2  0
 11 19  1  0
 19 20  2  0
 20 21  1  0
 21 22  2  0
 12 22  1  0
  1 23  1  0
 23 24  1  0
 24 25  1  0
 24 26  1  0
 26 27  1  0
 27 28  1  0
 28 29  2  0
 29 30  1  0
 30 31  2  0
 31 32  1  0
 27 32  2  0
 28 33  1  0
 33 34  2  0
 33 35  1  0
 35 36  2  0
 36 37  1  0
 37 38  2  0
 38 39  1  0
 39 40  2  0
 35 40  1  0
 25 41  1  0
 25 42  2  0
 38 43  1  0
M  END
