 
 
 
 34 38  0  0  1  0  0  0  0  0999 V2000
   12.5189  -16.5042    0.0000 C   0  0  0  0  0  0  0  0  0  0  0  0
   12.5189  -17.9028    0.0000 N   0  0  0  0  0  0  0  0  0  0  0  0
   13.7078  -18.6022    0.0000 C   0  0  0  0  0  0  0  0  0  0  0  0
   14.9666  -17.9028    0.0000 C   0  0  0  0  0  0  0  0  0  0  0  0
   14.9666  -16.5042    0.0000 C   0  0  0  0  0  0  0  0  0  0  0  0
   13.7078  -15.8048    0.0000 N   0  0  0  0  0  0  0  0  0  0  0  0
   13.7078  -20.0008    0.0000 N   0  0  0  0  0  0  0  0  0  0  0  0
   16.2953  -18.3224    0.0000 N   0  0  0  0  0  0  0  0  0  0  0  0
   17.0646  -17.2035    0.0000 C   0  0  0  0  0  0  0  0  0  0  0  0
   16.2953  -16.0846    0.0000 N   0  0  0  0  0  0  0  0  0  0  0  0
   18.4632  -17.2035    0.0000 O   0  0  0  0  0  0  0  0  0  0  0  0
   16.7848  -14.7558    0.0000 C   0  0  0  0  0  0  0  0  0  0  0  0
   18.1136  -14.3362    0.0000 C   0  0  0  0  0  0  0  0  0  0  0  0
   18.1136  -12.9376    0.0000 N   0  0  0  0  0  0  0  0  0  0  0  0
   16.7848  -12.4481    0.0000 C   0  0  0  0  0  0  0  0  0  0  0  0
   15.9456  -13.5670    0.0000 C   0  0  0  0  0  0  0  0  0  0  0  0
   19.3024  -12.2383    0.0000 C   0  0  0  0  0  0  0  0  0  0  0  0
   20.4913  -12.9376    0.0000 C   0  0  0  0  0  0  0  0  0  0  0  0
   19.3024  -10.8396    0.0000 O   0  0  0  0  0  0  0  0  0  0  0  0
   21.6801  -13.6369    0.0000 C   0  0  0  0  0  0  0  0  0  0  0  0
   22.9389  -14.3362    0.0000 C   0  0  0  0  0  0  0  0  0  0  0  0
   17.4842  -19.0218    0.0000 C   0  0  0  0  0  0  0  0  0  0  0  0
   17.4842  -20.4204    0.0000 C   0  0  0  0  0  0  0  0  0  0  0  0
   18.6730  -21.1197    0.0000 C   0  0  0  0  0  0  0  0  0  0  0  0
   19.9318  -20.4204    0.0000 C   0  0  0  0  0  0  0  0  0  0  0  0
   19.9318  -19.0218    0.0000 C   0  0  0  0  0  0  0  0  0  0  0  0
   18.6730  -18.3224    0.0000 C   0  0  0  0  0  0  0  0  0  0  0  0
   21.1207  -21.1197    0.0000 O   0  0  0  0  0  0  0  0  0  0  0  0
   22.3095  -20.4204    0.0000 C   0  0  0  0  0  0  0  0  0  0  0  0
   23.4984  -21.1197    0.0000 C   0  0  0  0  0  0  0  0  0  0  0  0
   24.7572  -20.4204    0.0000 C   0  0  0  0  0  0  0  0  0  0  0  0
   24.7572  -19.0218    0.0000 C   0  0  0  0  0  0  0  0  0  0  0  0
   23.5683  -18.3224    0.0000 C   0  0  0  0  0  0  0  0  0  0  0  0
   22.3095  -19.0218    0.0000 C   0  0  0  0  0  0  0  0  0  0  0  0
  1  2  2  0     0  0
  2  3  1  0     0  0
  3  4  2  0     0  0
  4  5  1  0     0  0
  5  6  2  0     0  0
  1  6  1  0     0  0
  3  7  1  0     0  0
  4  8  1  0     0  0
  8  9  1  0     0  0
  9 10  1  0     0  0
  5 10  1  0     0  0
  9 11  2  0     0  0
 12 10  1  6     0  0
 12 13  1  0     0  0
 13 14  1  0     0  0
 14 15  1  0     0  0
 15 16  1  0     0  0
 12 16  1  0     0  0
 17 18  1  0     0  0
 17 14  1  0     0  0
 17 19  2  0     0  0
 18 20  3  0     0  0
 20 21  1  0     0  0
 22 23  2  0     0  0
 23 24  1  0     0  0
 24 25  2  0     0  0
 25 26  1  0     0  0
 26 27  2  0     0  0
 25 28  1  0     0  0
 28 29  1  0     0  0
 29 30  2  0     0  0
 30 31  1  0     0  0
 31 32  2  0     0  0
 32 33  1  0     0  0
 33 34  2  0     0  0
 29 34  1  0     0  0
 27 22  1  0     0  0
 22  8  1  0     0  0
M  END
