 
 
 
 22 22  0  0  0  0  0  0  0  0999 V2000
   23.4500  -15.1900    0.0000 O   0  0  0  0  0  0  0  0  0  0  0  0
   22.2600  -15.8900    0.0000 C   0  0  0  0  0  0  0  0  0  0  0  0
   21.0700  -15.1900    0.0000 C   0  0  3  0  0  0  0  0  0  0  0  0
   22.2600  -17.2900    0.0000 O   0  0  0  0  0  0  0  0  0  0  0  0
   19.8800  -15.8900    0.0000 C   0  0  0  0  0  0  0  0  0  0  0  0
   18.6200  -15.1900    0.0000 C   0  0  0  0  0  0  0  0  0  0  0  0
   17.4300  -15.8900    0.0000 C   0  0  0  0  0  0  0  0  0  0  0  0
   17.4300  -17.2900    0.0000 C   0  0  0  0  0  0  0  0  0  0  0  0
   18.6200  -17.9900    0.0000 C   0  0  0  0  0  0  0  0  0  0  0  0
   19.8800  -17.2900    0.0000 C   0  0  0  0  0  0  0  0  0  0  0  0
   16.2400  -17.9900    0.0000 C   0  0  0  0  0  0  0  0  0  0  0  0
   14.9800  -17.2900    0.0000 C   0  0  3  0  0  0  0  0  0  0  0  0
   13.7900  -17.9900    0.0000 C   0  0  0  0  0  0  0  0  0  0  0  0
   14.9800  -15.8900    0.0000 C   0  0  0  0  0  0  0  0  0  0  0  0
   21.0700  -13.7900    0.0000 C   0  0  0  0  0  0  0  0  0  0  0  0
   24.6400  -15.8900    0.0000 C   0  0  0  0  0  0  0  0  0  0  0  0
   25.8300  -15.1900    0.0000 C   0  0  0  0  0  0  0  0  0  0  0  0
   27.0200  -15.8900    0.0000 N   0  0  0  0  0  0  0  0  0  0  0  0
   28.2100  -15.1900    0.0000 C   0  0  0  0  0  0  0  0  0  0  0  0
   29.4700  -15.8900    0.0000 C   0  0  0  0  0  0  0  0  0  0  0  0
   27.0200  -17.2900    0.0000 C   0  0  0  0  0  0  0  0  0  0  0  0
   28.2100  -18.0600    0.0000 C   0  0  0  0  0  0  0  0  0  0  0  0
  2  4  2  0     0  0
  3  5  1  0     0  0
  5  6  2  0     0  0
  6  7  1  0     0  0
  7  8  2  0     0  0
  8  9  1  0     0  0
  9 10  2  0     0  0
 10  5  1  0     0  0
  8 11  1  0     0  0
  1  2  1  0     0  0
 11 12  1  0     0  0
 12 13  1  0     0  0
  2  3  1  0     0  0
 12 14  1  0     0  0
  3 15  1  0     0  0
  1 16  1  0     0  0
 16 17  1  0     0  0
 17 18  1  0     0  0
 18 19  1  0     0  0
 19 20  1  0     0  0
 18 21  1  0     0  0
 21 22  1  0     0  0
M  END
