 
 
 
 32 36  0  0  1  0  0  0  0  0999 V2000
   17.2446  -14.9953    0.0000 C   0  0  0  0  0  0  0  0  0  0  0  0
   18.4856  -14.3561    0.0000 C   0  0  0  0  0  0  0  0  0  0  0  0
   19.7669  -14.9218    0.0000 C   0  0  0  0  0  0  0  0  0  0  0  0
   20.1192  -16.2666    0.0000 N   0  0  0  0  0  0  0  0  0  0  0  0
   16.9765  -16.3785    0.0000 N   0  0  0  0  0  0  0  0  0  0  0  0
   19.2880  -17.3963    0.0000 C   0  0  0  0  0  0  0  0  0  0  0  0
   17.8873  -17.4422    0.0000 C   0  0  0  0  0  0  0  0  0  0  0  0
   20.7008  -13.8780    0.0000 C   0  0  0  0  0  0  0  0  0  0  0  0
   19.9967  -12.6673    0.0000 C   0  0  0  0  0  0  0  0  0  0  0  0
   18.6277  -12.9628    0.0000 S   0  0  0  0  0  0  0  0  0  0  0  0
   22.1008  -13.8737    0.0000 C   0  0  0  0  0  0  0  0  0  0  0  0
   22.7970  -12.6591    0.0000 C   0  0  0  0  0  0  0  0  0  0  0  0
   22.0929  -11.4483    0.0000 C   0  0  0  0  0  0  0  0  0  0  0  0
   20.6929  -11.4527    0.0000 C   0  0  0  0  0  0  0  0  0  0  0  0
   22.8045  -15.0839    0.0000 C   0  0  0  0  0  0  0  0  0  0  0  0
   24.2045  -15.0796    0.0000 C   0  0  0  0  0  0  0  0  0  0  0  0
   24.9008  -13.8650    0.0000 C   0  0  0  0  0  0  0  0  0  0  0  0
   24.1970  -12.6547    0.0000 N   0  0  0  0  0  0  0  0  0  0  0  0
   26.3200  -13.8606    0.0000 O   0  0  0  0  0  0  0  0  0  0  0  0
   27.0235  -15.0704    0.0000 C   0  0  0  0  0  0  0  0  0  0  0  0
   26.3350  -16.2710    0.0000 N   0  0  0  0  0  0  0  0  0  0  0  0
   27.0386  -17.4814    0.0000 C   0  0  0  0  0  0  0  0  0  0  0  0
   28.4386  -17.4772    0.0000 N   0  0  0  0  0  0  0  0  0  0  0  0
   29.1270  -16.2766    0.0000 C   0  0  0  0  0  0  0  0  0  0  0  0
   28.4235  -15.0663    0.0000 C   0  0  0  0  0  0  0  0  0  0  0  0
   26.3297  -18.7180    0.0000 Cl  0  0  0  0  0  0  0  0  0  0  0  0
   29.1261  -13.8411    0.0000 C   0  0  0  0  0  0  0  0  0  0  0  0
   30.5198  -13.8372    0.0000 O   0  0  0  0  0  0  0  0  0  0  0  0
   31.2066  -12.6399    0.0000 C   0  0  0  0  0  0  0  0  0  0  0  0
   32.6196  -12.6357    0.0000 C   0  0  0  0  0  0  0  0  0  0  0  0
   16.1014  -14.1381    0.0000 O   0  0  0  0  0  0  0  0  0  0  0  0
   17.3332  -18.7011    0.0000 C   0  0  0  0  0  0  0  0  0  0  0  0
  3  4  1  0     0  0
  1  5  1  0     0  0
  4  6  1  0     0  0
  2  3  2  0     0  0
  5  7  1  0     0  0
  1  2  1  0     0  0
  6  7  1  0     0  0
  3  8  1  0     0  0
  8  9  2  0     0  0
  9 10  1  0     0  0
  2 10  1  0     0  0
  8 11  1  0     0  0
 11 12  1  0     0  0
 12 13  1  0     0  0
 13 14  2  0     0  0
  9 14  1  0     0  0
 11 15  2  0     0  0
 15 16  1  0     0  0
 16 17  2  0     0  0
 17 18  1  0     0  0
 12 18  2  0     0  0
 17 19  1  0     0  0
 19 20  1  0     0  0
 20 21  2  0     0  0
 21 22  1  0     0  0
 22 23  2  0     0  0
 23 24  1  0     0  0
 24 25  2  0     0  0
 20 25  1  0     0  0
 22 26  1  0     0  0
 25 27  1  0     0  0
 27 28  1  0     0  0
 28 29  1  0     0  0
 29 30  1  0     0  0
  1 31  2  0     0  0
  7 32  1  1     0  0
M  END
