 
 
 
 32 35  0  0  1  0  0  0  0  0999 V2000
   10.3600  -12.2500    0.0000 C   0  0  0  0  0  0  0  0  0  0  0  0
    9.1000  -11.6900    0.0000 N   0  0  0  0  0  0  0  0  0  0  0  0
    8.1200  -12.7400    0.0000 C   0  0  0  0  0  0  0  0  0  0  0  0
    8.8200  -13.9300    0.0000 C   0  0  0  0  0  0  0  0  0  0  0  0
   10.2200  -13.6500    0.0000 C   0  0  0  0  0  0  0  0  0  0  0  0
    6.7200  -12.7400    0.0000 C   0  0  0  0  0  0  0  0  0  0  0  0
    6.0200  -13.9300    0.0000 C   0  0  0  0  0  0  0  0  0  0  0  0
    6.7200  -15.1200    0.0000 C   0  0  0  0  0  0  0  0  0  0  0  0
    8.1200  -15.1200    0.0000 C   0  0  0  0  0  0  0  0  0  0  0  0
    6.0900  -11.4800    0.0000 Cl  0  0  0  0  0  0  0  0  0  0  0  0
   11.5500  -11.5500    0.0000 C   0  0  0  0  0  0  0  0  0  0  0  0
   12.7400  -12.2500    0.0000 O   0  0  0  0  0  0  0  0  0  0  0  0
   11.5500  -10.1500    0.0000 N   0  0  0  0  0  0  0  0  0  0  0  0
   12.7400   -9.4500    0.0000 C   0  0  0  0  0  0  0  0  0  0  0  0
   13.9300  -10.1500    0.0000 C   0  0  0  0  0  0  0  0  0  0  0  0
   12.7400   -8.0500    0.0000 C   0  0  0  0  0  0  0  0  0  0  0  0
   13.9300   -7.3500    0.0000 C   0  0  0  0  0  0  0  0  0  0  0  0
   15.3300   -7.3500    0.0000 C   0  0  0  0  0  0  0  0  0  0  0  0
   14.6300   -6.1600    0.0000 C   0  0  0  0  0  0  0  0  0  0  0  0
   15.1481   -9.4599    0.0000 N   0  0  0  0  0  0  0  0  0  0  0  0
   16.3295  -10.1550    0.0000 C   0  0  0  0  0  0  0  0  0  0  0  0
   13.9186  -11.5500    0.0000 O   0  0  0  0  0  0  0  0  0  0  0  0
   17.5349   -9.4720    0.0000 C   0  0  0  0  0  0  0  0  0  0  0  0
   18.7061  -10.1609    0.0000 C   0  0  0  0  0  0  0  0  0  0  0  0
   18.6947  -11.5500    0.0000 C   0  0  0  0  0  0  0  0  0  0  0  0
   19.9014  -12.2599    0.0000 N   0  0  0  0  0  0  0  0  0  0  0  0
   21.1195  -11.5698    0.0000 C   0  0  0  0  0  0  0  0  0  0  0  0
   21.1309  -10.1807    0.0000 C   0  0  0  0  0  0  0  0  0  0  0  0
   19.9242   -9.4708    0.0000 C   0  0  0  0  0  0  0  0  0  0  0  0
   17.4730  -12.2421    0.0000 O   0  0  0  0  0  0  0  0  0  0  0  0
   16.3181  -11.5500    0.0000 C   0  0  0  0  0  0  0  0  0  0  0  0
   16.3181  -12.9500    0.0000 N   0  0  0  0  0  0  0  0  0  0  0  0
  1  2  1  0     0  0
  2  3  1  0     0  0
  4  5  1  0     0  0
  1  5  2  0     0  0
  4  3  2  0     0  0
  3  6  1  0     0  0
  6  7  2  0     0  0
  7  8  1  0     0  0
  8  9  2  0     0  0
  4  9  1  0     0  0
  6 10  1  0     0  0
 11 12  2  0     0  0
 11  1  1  0     0  0
 11 13  1  0     0  0
 13 14  1  0     0  0
 14 15  1  0     0  0
 14 16  1  1     0  0
 16 17  1  0     0  0
 17 18  1  0     0  0
 18 19  1  0     0  0
 19 17  1  0     0  0
 15 20  1  0     0  0
 20 21  1  0     0  0
 15 22  2  0     0  0
 21 23  1  0     0  0
 24 23  1  1     0  0
 24 25  1  0     0  0
 25 26  1  0     0  0
 26 27  1  0     0  0
 27 28  1  0     0  0
 28 29  1  0     0  0
 24 29  1  0     0  0
 25 30  2  0     0  0
 21 31  1  1     0  0
 31 32  3  0     0  0
M  END
