 
 
 
 41 44  0  0  1  0  0  0  0  0999 V2000
   20.7991  -20.5153    0.0000 C   0  0  0  0  0  0  0  0  0  0  0  0
   20.7991  -21.9157    0.0000 N   0  0  0  0  0  0  0  0  0  0  0  0
   21.9894  -22.6159    0.0000 C   0  0  0  0  0  0  0  0  0  0  0  0
   23.2498  -21.9157    0.0000 N   0  0  0  0  0  0  0  0  0  0  0  0
   23.2498  -20.5153    0.0000 C   0  0  0  0  0  0  0  0  0  0  0  0
   21.9894  -19.8151    0.0000 C   0  0  0  0  0  0  0  0  0  0  0  0
   21.9722  -24.0162    0.0000 N   0  0  0  0  0  0  0  0  0  0  0  0
   23.1889  -24.7389    0.0000 C   0  0  0  0  0  0  0  0  0  0  0  0
   23.1718  -26.1169    0.0000 C   0  0  0  0  0  0  0  0  0  0  0  0
   24.3758  -26.8321    0.0000 C   0  0  0  0  0  0  0  0  0  0  0  0
   25.5972  -26.1471    0.0000 C   0  0  0  0  0  0  0  0  0  0  0  0
   25.6143  -24.7691    0.0000 C   0  0  0  0  0  0  0  0  0  0  0  0
   24.4104  -24.0538    0.0000 C   0  0  0  0  0  0  0  0  0  0  0  0
   19.5834  -19.8200    0.0000 N   0  0  0  0  0  0  0  0  0  0  0  0
   18.3947  -20.5130    0.0000 C   0  0  0  0  0  0  0  0  0  0  0  0
   17.1980  -19.8286    0.0000 C   0  0  0  0  0  0  0  0  0  0  0  0
   15.9880  -20.5337    0.0000 C   0  0  0  0  0  0  0  0  0  0  0  0
   15.9937  -21.9341    0.0000 C   0  0  0  0  0  0  0  0  0  0  0  0
   17.1904  -22.6185    0.0000 C   0  0  0  0  0  0  0  0  0  0  0  0
   18.4003  -21.9134    0.0000 C   0  0  0  0  0  0  0  0  0  0  0  0
   14.7728  -22.6459    0.0000 F   0  0  0  0  0  0  0  0  0  0  0  0
   17.1920  -18.4152    0.0000 C   0  0  0  0  0  0  0  0  0  0  0  0
   17.1920  -17.0148    0.0000 O   0  0  0  0  0  0  0  0  0  0  0  0
   15.8616  -18.4152    0.0000 C   0  0  0  0  0  0  0  0  0  0  0  0
   18.6624  -18.4152    0.0000 C   0  0  0  0  0  0  0  0  0  0  0  0
   17.1959  -24.0158    0.0000 Cl  0  0  0  0  0  0  0  0  0  0  0  0
   24.4281  -22.6860    0.0000 O   0  0  0  0  0  0  0  0  0  0  0  0
   25.6589  -21.9964    0.0000 C   0  0  0  0  0  0  0  0  0  0  0  0
   24.3585  -28.2175    0.0000 N   0  0  0  0  0  0  0  0  0  0  0  0
   23.1458  -28.8975    0.0000 C   0  0  0  0  0  0  0  0  0  0  0  0
   23.1977  -30.3171    0.0000 O   0  0  0  0  0  0  0  0  0  0  0  0
   26.8117  -26.8690    0.0000 N   0  0  0  0  0  0  0  0  0  0  0  0
   26.9420  -28.2822    0.0000 C   0  0  0  0  0  0  0  0  0  0  0  0
   28.3263  -28.5951    0.0000 C   0  0  0  0  0  0  0  0  0  0  0  0
   29.0516  -27.3751    0.0000 C   0  0  0  0  0  0  0  0  0  0  0  0
   28.1155  -26.3084    0.0000 C   0  0  0  0  0  0  0  0  0  0  0  0
   28.8750  -29.8703    0.0000 N   0  0  0  0  0  0  0  0  0  0  0  0
   30.2453  -30.0322    0.0000 C   0  0  0  0  0  0  0  0  0  0  0  0
   28.0159  -31.0219    0.0000 C   0  0  0  0  0  0  0  0  0  0  0  0
   21.9591  -28.2313    0.0000 C   0  0  0  0  0  0  0  0  0  0  0  0
   20.7834  -28.9292    0.0000 C   0  0  0  0  0  0  0  0  0  0  0  0
  1  2  2  0     0  0
  2  3  1  0     0  0
  3  4  2  0     0  0
  4  5  1  0     0  0
  5  6  2  0     0  0
  1  6  1  0     0  0
  3  7  1  0     0  0
  7  8  1  0     0  0
  8  9  2  0     0  0
  9 10  1  0     0  0
 10 11  2  0     0  0
 11 12  1  0     0  0
 12 13  2  0     0  0
  8 13  1  0     0  0
  1 14  1  0     0  0
 14 15  1  0     0  0
 15 16  2  0     0  0
 16 17  1  0     0  0
 17 18  2  0     0  0
 18 19  1  0     0  0
 19 20  2  0     0  0
 15 20  1  0     0  0
 18 21  1  0     0  0
 16 22  1  0     0  0
 22 23  1  0     0  0
 22 24  1  0     0  0
 22 25  1  0     0  0
 19 26  1  0     0  0
 13 27  1  0     0  0
 27 28  1  0     0  0
 10 29  1  0     0  0
 29 30  1  0     0  0
 30 31  2  0     0  0
 11 32  1  0     0  0
 32 33  1  0     0  0
 33 34  1  0     0  0
 34 35  1  0     0  0
 35 36  1  0     0  0
 32 36  1  0     0  0
 34 37  1  1     0  0
 37 38  1  0     0  0
 37 39  1  0     0  0
 30 40  1  0     0  0
 40 41  2  0     0  0
M  END
