 
 
 
 65 75  0  0  1  0  0  0  0  0999 V2000
   17.5639  -14.6861    0.0000 C   0  0  0  0  0  0  0  0  0  0  0  0
   17.5639  -16.0915    0.0000 N   0  0  0  0  0  0  0  0  0  0  0  0
   18.7585  -16.7942    0.0000 C   0  0  0  0  0  0  0  0  0  0  0  0
   20.0233  -16.0915    0.0000 C   0  0  0  0  0  0  0  0  0  0  0  0
   20.0233  -14.6861    0.0000 C   0  0  0  0  0  0  0  0  0  0  0  0
   18.7585  -13.9834    0.0000 C   0  0  0  0  0  0  0  0  0  0  0  0
   21.3584  -16.5131    0.0000 C   0  0  0  0  0  0  0  0  0  0  0  0
   22.1313  -15.3888    0.0000 N   0  0  0  0  0  0  0  0  0  0  0  0
   21.3584  -14.2645    0.0000 N   0  0  0  0  0  0  0  0  0  0  0  0
   23.5367  -15.3888    0.0000 C   0  0  0  0  0  0  0  0  0  0  0  0
   24.2394  -16.5834    0.0000 C   0  0  0  0  0  0  0  0  0  0  0  0
   25.6448  -16.5834    0.0000 C   0  0  0  0  0  0  0  0  0  0  0  0
   26.3475  -15.3888    0.0000 C   0  0  0  0  0  0  0  0  0  0  0  0
   25.6448  -14.1942    0.0000 C   0  0  0  0  0  0  0  0  0  0  0  0
   24.2394  -14.1942    0.0000 C   0  0  0  0  0  0  0  0  0  0  0  0
   26.3475  -12.9997    0.0000 C   0  0  0  0  0  0  0  0  0  0  0  0
   27.7528  -15.3888    0.0000 F   0  0  0  0  0  0  0  0  0  0  0  0
   26.3475  -17.7779    0.0000 C   0  0  0  0  0  0  0  0  0  0  0  0
   21.7800  -17.8482    0.0000 N   0  0  0  0  0  0  0  0  0  0  0  0
   20.9368  -18.9725    0.0000 C   0  0  0  0  0  0  0  0  0  0  0  0
   21.7800  -20.0968    0.0000 C   0  0  0  0  0  0  0  0  0  0  0  0
   23.1151  -19.6752    0.0000 N   0  0  0  0  0  0  0  0  0  0  0  0
   23.1151  -18.2698    0.0000 C   0  0  0  0  0  0  0  0  0  0  0  0
   24.2394  -17.4266    0.0000 O   0  0  0  0  0  0  0  0  0  0  0  0
   24.2394  -20.5184    0.0000 C   0  0  0  0  0  0  0  0  0  0  0  0
   24.2394  -21.9238    0.0000 C   0  0  0  0  0  0  0  0  0  0  0  0
   25.4340  -22.6264    0.0000 C   0  0  0  0  0  0  0  0  0  0  0  0
   26.6988  -21.9238    0.0000 C   0  0  0  0  0  0  0  0  0  0  0  0
   26.6988  -20.5184    0.0000 C   0  0  0  0  0  0  0  0  0  0  0  0
   25.4340  -19.8157    0.0000 C   0  0  0  0  0  0  0  0  0  0  0  0
   28.0339  -22.3454    0.0000 N   0  0  0  0  0  0  0  0  0  0  0  0
   28.8068  -21.2211    0.0000 N   0  0  0  0  0  0  0  0  0  0  0  0
   28.0339  -20.0968    0.0000 C   0  0  0  0  0  0  0  0  0  0  0  0
   25.4340  -18.4103    0.0000 F   0  0  0  0  0  0  0  0  0  0  0  0
   28.5258  -23.6805    0.0000 C   0  0  0  0  0  0  0  0  0  0  0  0
   18.7585  -18.1995    0.0000 C   0  0  0  0  0  0  0  0  0  0  0  0
   16.3693  -16.7942    0.0000 C   0  0  0  0  0  0  0  0  0  0  0  0
   15.1748  -16.0915    0.0000 C   0  0  0  0  0  0  0  0  0  0  0  0
   16.3693  -18.1995    0.0000 O   0  0  0  0  0  0  0  0  0  0  0  0
   15.0342  -14.6861    0.0000 C   0  0  0  0  0  0  0  0  0  0  0  0
   13.6289  -14.4050    0.0000 C   0  0  0  0  0  0  0  0  0  0  0  0
   12.9262  -15.5996    0.0000 C   0  0  0  0  0  0  0  0  0  0  0  0
   13.8397  -16.6536    0.0000 N   0  0  0  0  0  0  0  0  0  0  0  0
   12.9262  -13.2105    0.0000 C   0  0  0  0  0  0  0  0  0  0  0  0
   11.5208  -13.1402    0.0000 C   0  0  0  0  0  0  0  0  0  0  0  0
   10.8181  -14.4050    0.0000 C   0  0  0  0  0  0  0  0  0  0  0  0
   11.5208  -15.5996    0.0000 C   0  0  0  0  0  0  0  0  0  0  0  0
   10.8181  -11.9456    0.0000 C   0  0  0  0  0  0  0  0  0  0  0  0
   11.5208  -10.7511    0.0000 C   0  0  0  0  0  0  0  0  0  0  0  0
   10.8181   -9.4862    0.0000 C   0  0  0  0  0  0  0  0  0  0  0  0
    9.4128   -9.4862    0.0000 O   0  0  0  0  0  0  0  0  0  0  0  0
    8.7101  -10.6808    0.0000 C   0  0  0  0  0  0  0  0  0  0  0  0
    9.4128  -11.9456    0.0000 C   0  0  0  0  0  0  0  0  0  0  0  0
   11.8019   -8.5025    0.0000 C   0  0  0  0  0  0  0  0  0  0  0  0
   10.1154   -8.2917    0.0000 C   0  0  0  0  0  0  0  0  0  0  0  0
   13.1370  -17.8482    0.0000 C   0  0  0  0  0  0  0  0  0  0  0  0
   12.7856  -19.1833    0.0000 C   0  0  0  0  0  0  0  0  0  0  0  0
   14.1207  -18.8319    0.0000 C   0  0  0  0  0  0  0  0  0  0  0  0
   15.4558  -19.1833    0.0000 C   0  0  0  0  0  0  0  0  0  0  0  0
   11.7316  -17.8482    0.0000 C   0  0  0  0  0  0  0  0  0  0  0  0
   10.8884  -16.7239    0.0000 N   0  0  0  0  0  0  0  0  0  0  0  0
    9.6236  -17.1455    0.0000 C   0  0  0  0  0  0  0  0  0  0  0  0
    9.6236  -18.5509    0.0000 O   0  0  0  0  0  0  0  0  0  0  0  0
   10.8884  -18.9725    0.0000 N   0  0  0  0  0  0  0  0  0  0  0  0
    8.4290  -16.3023    0.0000 O   0  0  0  0  0  0  0  0  0  0  0  0
  1  2  1  0     0  0
  2  3  1  0     0  0
  3  4  1  0     0  0
  4  5  1  0     0  0
  5  6  1  0     0  0
  1  6  1  0     0  0
  4  7  2  0     0  0
  7  8  1  0     0  0
  8  9  1  0     0  0
  5  9  2  0     0  0
  8 10  1  0     0  0
 10 11  2  0     0  0
 11 12  1  0     0  0
 12 13  2  0     0  0
 13 14  1  0     0  0
 14 15  2  0     0  0
 10 15  1  0     0  0
 14 16  1  0     0  0
 13 17  1  0     0  0
 12 18  1  0     0  0
  7 19  1  0     0  0
 19 20  1  0     0  0
 20 21  2  0     0  0
 21 22  1  0     0  0
 22 23  1  0     0  0
 19 23  1  0     0  0
 23 24  2  0     0  0
 22 25  1  0     0  0
 25 26  2  0     0  0
 26 27  1  0     0  0
 27 28  2  0     0  0
 28 29  1  0     0  0
 29 30  2  0     0  0
 25 30  1  0     0  0
 28 31  1  0     0  0
 31 32  1  0     0  0
 32 33  2  0     0  0
 29 33  1  0     0  0
 30 34  1  0     0  0
 31 35  1  0     0  0
  3 36  1  6     0  0
  2 37  1  0     0  0
 37 38  1  0     0  0
 37 39  2  0     0  0
 38 40  2  0     0  0
 40 41  1  0     0  0
 41 42  1  0     0  0
 42 43  1  0     0  0
 38 43  1  0     0  0
 41 44  2  0     0  0
 44 45  1  0     0  0
 45 46  2  0     0  0
 46 47  1  0     0  0
 42 47  2  0     0  0
 48 45  1  1     0  0
 48 49  1  0     0  0
 49 50  1  0     0  0
 50 51  1  0     0  0
 51 52  1  0     0  0
 52 53  1  0     0  0
 48 53  1  0     0  0
 50 54  1  1     0  0
 50 55  1  6     0  0
 56 43  1  6     0  0
 57 58  1  0     0  0
 58 56  1  0     0  0
 56 57  1  0     0  0
 58 59  1  1     0  0
 56 60  1  1     0  0
 60 61  1  0     0  0
 61 62  1  0     0  0
 62 63  1  0     0  0
 63 64  1  0     0  0
 60 64  2  0     0  0
 62 65  2  0     0  0
M  END
