 
     RDKit          2D

 21 20  0  0  0  0  0  0  0  0999 V2000
   16.1797  -16.5999    0.0000 C   0  0  0  0  0  0  0  0  0  0  0  0
   17.4404  -17.3003    0.0000 C   0  0  0  0  0  0  0  0  0  0  0  0
   14.9890  -17.3003    0.0000 C   0  0  0  0  0  0  0  0  0  0  0  0
   16.1797  -15.3392    0.0000 C   0  0  0  0  0  0  0  0  0  0  0  0
   17.4404  -18.7012    0.0000 C   0  0  0  0  0  0  0  0  0  0  0  0
   18.6311  -16.5299    0.0000 O   0  0  0  0  0  0  0  0  0  0  0  0
   14.9890  -18.7012    0.0000 C   0  0  0  0  0  0  0  0  0  0  0  0
   17.4404  -14.6388    0.0000 O   0  0  0  0  0  0  0  0  0  0  0  0
   14.9890  -14.6388    0.0000 O   0  0  0  0  0  0  0  0  0  0  0  0
   16.1797  -19.4016    0.0000 C   0  0  0  0  0  0  0  0  0  0  0  0
   19.8919  -17.2303    0.0000 C   0  0  0  0  0  0  0  0  0  0  0  0
   21.0826  -16.5299    0.0000 C   0  0  0  0  0  0  0  0  0  0  0  0
   19.8919  -18.7012    0.0000 O   0  0  0  0  0  0  0  0  0  0  0  0
   18.6311  -15.3392    0.0000 C   0  0  0  0  0  0  0  0  0  0  0  0
   19.8218  -14.7088    0.0000 C   0  0  0  0  0  0  0  0  0  0  0  0
   19.8919  -13.2379    0.0000 N   0  0  0  0  0  0  0  0  0  0  0  0
   21.0826  -12.6075    0.0000 C   0  0  0  0  0  0  0  0  0  0  0  0
   22.2733  -13.3080    0.0000 C   0  0  0  0  0  0  0  0  0  0  0  0
   18.6311  -12.5375    0.0000 C   0  0  0  0  0  0  0  0  0  0  0  0
   17.4404  -13.2379    0.0000 C   0  0  0  0  0  0  0  0  0  0  0  0
   25.1300  -18.9700    0.0000 Cl  0  0  0  0  0  0  0  0  0  0  0  0
  1  2  2  0
  1  3  1  0
  1  4  1  0
  2  5  1  0
  2  6  1  0
  3  7  2  0
  4  8  1  0
  4  9  2  0
  5 10  2  0
  6 11  1  0
 11 12  1  0
 11 13  2  0
  7 10  1  0
  8 14  1  0
 14 15  1  0
 15 16  1  0
 16 17  1  0
 17 18  1  0
 16 19  1  0
 19 20  1  0
M  END
