 
 
 
 35 38  0  0  1  0  0  0  0  0999 V2000
   36.4000  -17.1500    0.0000 C   0  0  0  0  0  0  0  0  0  0  0  0
   35.2100  -16.4500    0.0000 C   0  0  0  0  0  0  0  0  0  0  0  0
   37.5900  -16.4500    0.0000 N   0  0  0  0  0  0  0  0  0  0  0  0
   36.4000  -18.5500    0.0000 O   0  0  0  0  0  0  0  0  0  0  0  0
   35.2100  -15.0500    0.0000 C   0  0  0  0  0  0  0  0  0  0  0  0
   33.9500  -14.3500    0.0000 C   0  0  0  0  0  0  0  0  0  0  0  0
   32.7600  -15.0500    0.0000 C   0  0  0  0  0  0  0  0  0  0  0  0
   32.7600  -16.4500    0.0000 C   0  0  0  0  0  0  0  0  0  0  0  0
   33.9500  -17.1500    0.0000 C   0  0  0  0  0  0  0  0  0  0  0  0
   38.8500  -17.0100    0.0000 C   0  0  0  0  0  0  0  0  0  0  0  0
   39.8300  -15.9600    0.0000 C   0  0  0  0  0  0  0  0  0  0  0  0
   39.1300  -14.7700    0.0000 C   0  0  0  0  0  0  0  0  0  0  0  0
   37.7300  -15.0500    0.0000 C   0  0  0  0  0  0  0  0  0  0  0  0
   40.5300  -14.7700    0.0000 C   0  0  0  0  0  0  0  0  0  0  0  0
   41.0200  -16.6600    0.0000 C   0  0  0  0  0  0  0  0  0  0  0  0
   39.2000  -13.3700    0.0000 H   0  0  0  0  0  0  0  0  0  0  0  0
   41.0200  -18.0600    0.0000 N   0  0  0  0  0  0  0  0  0  0  0  0
   42.3500  -18.4800    0.0000 O   0  0  0  0  0  0  0  0  0  0  0  0
   43.1900  -17.3600    0.0000 C   0  0  0  0  0  0  0  0  0  0  0  0
   42.3500  -16.2400    0.0000 C   0  0  0  0  0  0  0  0  0  0  0  0
   44.5900  -17.3600    0.0000 C   0  0  0  0  0  0  0  0  0  0  0  0
   45.9900  -17.3600    0.0000 F   0  0  0  0  0  0  0  0  0  0  0  0
   44.5900  -18.7600    0.0000 F   0  0  0  0  0  0  0  0  0  0  0  0
   44.5900  -15.9600    0.0000 F   0  0  0  0  0  0  0  0  0  0  0  0
   36.4166  -14.3400    0.0000 O   0  0  0  0  0  0  0  0  0  0  0  0
   36.4166  -12.9400    0.0000 C   0  0  0  0  0  0  0  0  0  0  0  0
   37.6123  -12.2497    0.0000 C   0  0  0  0  0  0  0  0  0  0  0  0
   35.1962  -12.2353    0.0000 C   0  0  0  0  0  0  0  0  0  0  0  0
   38.8078  -11.5594    0.0000 F   0  0  0  0  0  0  0  0  0  0  0  0
   36.9123  -11.0373    0.0000 F   0  0  0  0  0  0  0  0  0  0  0  0
   38.3123  -13.4622    0.0000 F   0  0  0  0  0  0  0  0  0  0  0  0
   31.5447  -17.1451    0.0000 S   0  0  0  0  0  0  0  0  0  0  0  0
   30.3323  -17.8451    0.0000 C   0  0  0  0  0  0  0  0  0  0  0  0
   30.8447  -15.9326    0.0000 O   0  0  0  0  0  0  0  0  0  0  0  0
   32.2447  -18.3575    0.0000 O   0  0  0  0  0  0  0  0  0  0  0  0
  1  2  1  0     0  0
  1  3  1  0     0  0
  1  4  2  0     0  0
  2  5  2  0     0  0
  5  6  1  0     0  0
  6  7  2  0     0  0
  7  8  1  0     0  0
  8  9  2  0     0  0
  2  9  1  0     0  0
  3 10  1  0     0  0
 10 11  1  0     0  0
 11 12  1  0     0  0
 12 13  1  0     0  0
  3 13  1  0     0  0
 14 12  1  0     0  0
 11 14  1  0     0  0
 11 15  1  1     0  0
 12 16  1  1     0  0
 15 17  2  0     0  0
 17 18  1  0     0  0
 18 19  1  0     0  0
 19 20  2  0     0  0
 15 20  1  0     0  0
 19 21  1  0     0  0
 21 22  1  0     0  0
 21 23  1  0     0  0
 21 24  1  0     0  0
  5 25  1  0     0  0
 25 26  1  0     0  0
 26 27  1  0     0  0
 26 28  1  6     0  0
 27 29  1  0     0  0
 27 30  1  0     0  0
 27 31  1  0     0  0
  8 32  1  0     0  0
 32 33  1  0     0  0
 32 34  2  0     0  0
 32 35  2  0     0  0
M  END
