 
 
 
 36 39  0  0  1  0  0  0  0  0999 V2000
   11.6200  -20.5100    0.0000 C   0  0  0  0  0  0  0  0  0  0  0  0
   11.6200  -19.1100    0.0000 C   0  0  0  0  0  0  0  0  0  0  0  0
   10.4300  -18.4100    0.0000 C   0  0  0  0  0  0  0  0  0  0  0  0
    9.1700  -19.1100    0.0000 C   0  0  0  0  0  0  0  0  0  0  0  0
    9.1700  -20.5100    0.0000 C   0  0  0  0  0  0  0  0  0  0  0  0
   10.4300  -21.2100    0.0000 C   0  0  0  0  0  0  0  0  0  0  0  0
    7.9800  -18.4100    0.0000 F   0  0  0  0  0  0  0  0  0  0  0  0
   12.8100  -21.2100    0.0000 F   0  0  0  0  0  0  0  0  0  0  0  0
    7.9800  -21.2100    0.0000 C   0  0  0  0  0  0  0  0  0  0  0  0
    6.7900  -20.5100    0.0000 N   0  0  0  0  0  0  0  0  0  0  0  0
    7.9800  -22.6100    0.0000 O   0  0  0  0  0  0  0  0  0  0  0  0
    5.6000  -21.2100    0.0000 C   0  0  0  0  0  0  0  0  0  0  0  0
    4.4100  -20.5100    0.0000 C   0  0  0  0  0  0  0  0  0  0  0  0
    5.6000  -22.6100    0.0000 C   0  0  0  0  0  0  0  0  0  0  0  0
    3.1500  -19.8100    0.0000 F   0  0  0  0  0  0  0  0  0  0  0  0
    5.1100  -19.3200    0.0000 F   0  0  0  0  0  0  0  0  0  0  0  0
    3.7100  -21.7000    0.0000 F   0  0  0  0  0  0  0  0  0  0  0  0
   12.8100  -18.4100    0.0000 N   0  0  0  0  0  0  0  0  0  0  0  0
   14.1400  -18.7600    0.0000 C   0  0  0  0  0  0  0  0  0  0  0  0
   14.4900  -17.4300    0.0000 C   0  0  0  0  0  0  0  0  0  0  0  0
   13.1600  -17.0800    0.0000 C   0  0  0  0  0  0  0  0  0  0  0  0
   14.9100  -16.1000    0.0000 C   0  0  0  0  0  0  0  0  0  0  0  0
   16.2400  -15.6800    0.0000 C   0  0  0  0  0  0  0  0  0  0  0  0
   17.6400  -15.3300    0.0000 N   0  0  0  0  0  0  0  0  0  0  0  0
   15.8349  -17.8191    0.0000 N   0  0  0  0  0  0  0  0  0  0  0  0
   16.2932  -19.1676    0.0000 C   0  0  0  0  0  0  0  0  0  0  0  0
   17.7169  -19.1490    0.0000 C   0  0  0  0  0  0  0  0  0  0  0  0
   18.1391  -17.7892    0.0000 C   0  0  0  0  0  0  0  0  0  0  0  0
   16.9763  -16.9674    0.0000 N   0  0  0  0  0  0  0  0  0  0  0  0
   18.5671  -20.2870    0.0000 C   0  0  0  0  0  0  0  0  0  0  0  0
   18.1473  -21.6408    0.0000 C   0  0  0  0  0  0  0  0  0  0  0  0
   19.3052  -22.4585    0.0000 N   0  0  0  0  0  0  0  0  0  0  0  0
   20.4406  -21.6100    0.0000 N   0  0  0  0  0  0  0  0  0  0  0  0
   19.9845  -20.2679    0.0000 C   0  0  0  0  0  0  0  0  0  0  0  0
   20.7652  -19.1618    0.0000 C   0  0  0  0  0  0  0  0  0  0  0  0
   16.8097  -22.0956    0.0000 C   0  0  0  0  0  0  0  0  0  0  0  0
  1  2  2  0     0  0
  2  3  1  0     0  0
  3  4  2  0     0  0
  4  5  1  0     0  0
  5  6  2  0     0  0
  1  6  1  0     0  0
  4  7  1  0     0  0
  1  8  1  0     0  0
  5  9  1  0     0  0
  9 10  1  0     0  0
  9 11  2  0     0  0
 10 12  1  0     0  0
 12 13  1  0     0  0
 12 14  1  1     0  0
 13 15  1  0     0  0
 13 16  1  0     0  0
 13 17  1  0     0  0
  2 18  1  0     0  0
 18 19  1  0     0  0
 19 20  1  0     0  0
 20 21  1  0     0  0
 18 21  1  0     0  0
 20 22  1  0     0  0
 22 23  1  0     0  0
 23 24  3  0     0  0
 20 25  1  0     0  0
 25 26  1  0     0  0
 26 27  2  0     0  0
 27 28  1  0     0  0
 28 29  2  0     0  0
 25 29  1  0     0  0
 27 30  1  0     0  0
 30 31  2  0     0  0
 31 32  1  0     0  0
 32 33  1  0     0  0
 33 34  2  0     0  0
 30 34  1  0     0  0
 34 35  1  0     0  0
 31 36  1  0     0  0
M  END
