 
 
 
 42 45  0  0  1  0  0  0  0  0999 V2000
   16.9400  -17.0800    0.0000 N   0  0  3  0  0  0  0  0  0  0  0  0
   18.1300  -16.4500    0.0000 C   0  0  0  0  0  0  0  0  0  0  0  0
   15.7500  -16.4500    0.0000 C   0  0  0  0  0  0  0  0  0  0  0  0
   15.7500  -14.9800    0.0000 O   0  0  0  0  0  0  0  0  0  0  0  0
   19.3200  -17.1500    0.0000 C   0  0  0  0  0  0  0  0  0  0  0  0
   20.5100  -16.4500    0.0000 N   0  0  0  0  0  0  0  0  0  0  0  0
   21.7000  -17.1500    0.0000 C   0  0  0  0  0  0  0  0  0  0  0  0
   22.8900  -16.4500    0.0000 C   0  0  0  0  0  0  0  0  0  0  0  0
   24.0800  -17.1500    0.0000 C   0  0  0  0  0  0  0  0  0  0  0  0
   25.2700  -16.4500    0.0000 C   0  0  0  0  0  0  0  0  0  0  0  0
   19.3200  -18.4800    0.0000 O   0  0  0  0  0  0  0  0  0  0  0  0
   18.1300  -14.9800    0.0000 C   0  0  0  0  0  0  0  0  0  0  0  0
   19.3900  -14.2800    0.0000 C   0  0  0  0  0  0  0  0  0  0  0  0
   20.5100  -14.9800    0.0000 C   0  0  0  0  0  0  0  0  0  0  0  0
   21.7700  -14.2800    0.0000 C   0  0  0  0  0  0  0  0  0  0  0  0
   21.7700  -12.8800    0.0000 C   0  0  0  0  0  0  0  0  0  0  0  0
   20.5800  -12.2500    0.0000 C   0  0  0  0  0  0  0  0  0  0  0  0
   19.3900  -12.8800    0.0000 C   0  0  0  0  0  0  0  0  0  0  0  0
   21.7000  -19.0400    0.0000 C   0  0  0  0  0  0  0  0  0  0  0  0
   20.5100  -19.7400    0.0000 C   0  0  0  0  0  0  0  0  0  0  0  0
   16.8700  -14.2800    0.0000 O   0  0  0  0  0  0  0  0  0  0  0  0
   19.1100  -19.7400    0.0000 C   0  0  0  0  0  0  0  0  0  0  0  0
   18.6900  -21.0700    0.0000 C   0  0  0  0  0  0  0  0  0  0  0  0
   19.8100  -21.8400    0.0000 C   0  0  0  0  0  0  0  0  0  0  0  0
   20.9300  -21.0000    0.0000 C   0  0  0  0  0  0  0  0  0  0  0  0
   22.8900  -15.0500    0.0000 O   0  0  0  0  0  0  0  0  0  0  0  0
   22.9600  -12.1800    0.0000 O   0  0  0  0  0  0  0  0  0  0  0  0
   24.2200  -12.8100    0.0000 C   0  0  0  0  0  0  0  0  0  0  0  0
   14.5600  -17.1500    0.0000 C   0  0  0  0  0  0  0  0  0  0  0  0
   13.3000  -16.4500    0.0000 N   0  0  0  0  0  0  0  0  0  0  0  0
   12.1100  -17.2200    0.0000 C   0  0  0  0  0  0  0  0  0  0  0  0
   10.9200  -16.5200    0.0000 C   0  0  0  0  0  0  0  0  0  0  0  0
    9.7300  -17.2200    0.0000 N   0  0  0  0  0  0  0  0  0  0  0  0
   12.1100  -18.6200    0.0000 O   0  0  0  0  0  0  0  0  0  0  0  0
    8.4700  -16.5900    0.0000 C   0  0  0  0  0  0  0  0  0  0  0  0
    7.3500  -17.2900    0.0000 C   0  0  0  0  0  0  0  0  0  0  0  0
    7.3500  -18.6900    0.0000 O   0  0  0  0  0  0  0  0  0  0  0  0
    8.5400  -19.3900    0.0000 C   0  0  0  0  0  0  0  0  0  0  0  0
    9.7300  -18.6200    0.0000 C   0  0  0  0  0  0  0  0  0  0  0  0
   23.3800  -18.3400    0.0000 C   0  0  0  0  0  0  0  0  0  0  0  0
   24.7800  -18.3400    0.0000 O   0  0  0  0  0  0  0  0  0  0  0  0
   14.5772  -18.5499    0.0000 C   0  0  0  0  0  0  0  0  0  0  0  0
  3  1  1  0     0  0
  2  1  1  1     0  0
  3  4  2  0     0  0
  2  5  1  0     0  0
  5  6  1  0     0  0
  6  7  1  0     0  0
  7  8  1  0     0  0
  9  8  1  6     0  0
  9 10  1  1     0  0
  5 11  2  0     0  0
 12 13  1  0     0  0
 13 14  2  0     0  0
 14 15  1  0     0  0
 15 16  2  0     0  0
 16 17  1  0     0  0
 17 18  2  0     0  0
 13 18  1  0     0  0
  2 12  1  0     0  0
 19 20  1  0     0  0
  7 19  1  6     0  0
 12 21  1  6     0  0
 20 22  2  0     0  0
 22 23  1  0     0  0
 23 24  1  0     0  0
 24 25  1  0     0  0
 20 25  1  0     0  0
  8 26  2  0     0  0
 16 27  1  0     0  0
 27 28  1  0     0  0
  3 29  1  0     0  0
 29 30  1  0     0  0
 30 31  1  0     0  0
 31 32  1  0     0  0
 32 33  1  0     0  0
 31 34  2  0     0  0
 33 35  1  0     0  0
 35 36  1  0     0  0
 36 37  1  0     0  0
 37 38  1  0     0  0
 38 39  1  0     0  0
 33 39  1  0     0  0
 40 41  1  0     0  0
 41  9  1  0     0  0
  9 40  1  0     0  0
 29 42  1  6     0  0
M  END
