 
 
 
 30 33  0  0  1  0  0  0  0  0999 V2000
   19.6000  -10.5000    0.0000 C   0  0  0  0  0  0  0  0  0  0  0  0
   19.6000   -9.1000    0.0000 N   0  0  0  0  0  0  0  0  0  0  0  0
   18.4100   -8.4000    0.0000 C   0  0  0  0  0  0  0  0  0  0  0  0
   17.1500   -9.1000    0.0000 C   0  0  0  0  0  0  0  0  0  0  0  0
   17.1500  -10.5000    0.0000 C   0  0  0  0  0  0  0  0  0  0  0  0
   18.4100  -11.2000    0.0000 N   0  0  0  0  0  0  0  0  0  0  0  0
   19.6000  -13.3000    0.0000 N   0  0  0  0  0  0  0  0  0  0  0  0
   20.7900  -12.6000    0.0000 C   0  0  0  0  0  0  0  0  0  0  0  0
   20.7900  -11.2000    0.0000 C   0  0  0  0  0  0  0  0  0  0  0  0
   15.9600  -11.2000    0.0000 N   0  0  0  0  0  0  0  0  0  0  0  0
   15.9600  -12.6000    0.0000 C   0  0  0  0  0  0  0  0  0  0  0  0
   19.6000  -14.7000    0.0000 C   0  0  0  0  0  0  0  0  0  0  0  0
   17.1500  -14.7000    0.0000 O   0  0  0  0  0  0  0  0  0  0  0  0
   18.4100  -15.4000    0.0000 C   0  0  0  0  0  0  0  0  0  0  0  0
   15.7500  -14.7000    0.0000 C   0  0  0  0  0  0  0  0  0  0  0  0
   15.4000  -13.3700    0.0000 C   0  0  0  0  0  0  0  0  0  0  0  0
   21.7700   -9.8700    0.0000 C   0  0  0  0  0  0  0  0  0  0  0  0
   20.7900   -8.5400    0.0000 N   0  0  0  0  0  0  0  0  0  0  0  0
   23.1700   -9.8700    0.0000 N   0  0  0  0  0  0  0  0  0  0  0  0
   14.7700  -10.5000    0.0000 C   0  0  0  0  0  0  0  0  0  0  0  0
   14.7700   -9.1000    0.0000 C   0  0  0  0  0  0  0  0  0  0  0  0
   14.0700  -13.0200    0.0000 C   0  0  0  0  0  0  0  0  0  0  0  0
   13.0200  -14.0000    0.0000 C   0  0  0  0  0  0  0  0  0  0  0  0
   13.4400  -15.3300    0.0000 C   0  0  0  0  0  0  0  0  0  0  0  0
   14.7700  -15.6800    0.0000 C   0  0  0  0  0  0  0  0  0  0  0  0
   11.6900  -13.5800    0.0000 F   0  0  0  0  0  0  0  0  0  0  0  0
   13.6500  -11.6900    0.0000 C   0  0  0  0  0  0  0  0  0  0  0  0
   13.3000  -10.2900    0.0000 N   0  0  0  0  0  0  0  0  0  0  0  0
   21.9800  -13.3000    0.0000 O   0  0  0  0  0  0  0  0  0  0  0  0
   18.4100  -16.8000    0.0000 C   0  0  0  0  0  0  0  0  0  0  0  0
  1  2  1  0     0  0
  2  3  1  0     0  0
  3  4  2  0     0  0
  4  5  1  0     0  0
  5  6  2  0     0  0
  1  6  1  0     0  0
  7  8  1  0     0  0
  8  9  1  0     0  0
  1  9  2  0     0  0
  5 10  1  0     0  0
 10 11  1  0     0  0
 12  7  1  0     0  0
 13 14  1  0     0  0
 12 14  1  0     0  0
 13 15  1  0     0  0
 15 16  1  0     0  0
 16 11  1  0     0  0
  9 17  1  0     0  0
 17 18  2  0     0  0
 18  2  1  0     0  0
 17 19  1  0     0  0
 10 20  1  0     0  0
 20 21  1  0     0  0
 16 22  2  0     0  0
 22 23  1  0     0  0
 23 24  2  0     0  0
 24 25  1  0     0  0
 15 25  2  0     0  0
 23 26  1  0     0  0
 22 27  1  0     0  0
 27 28  3  0     0  0
  8 29  2  0     0  0
 14 30  1  6     0  0
M  END
