 
 
 
 28 31  0  0  1  0  0  0  0  0999 V2000
   19.7813  -17.5368    0.0000 N   0  0  0  0  0  0  0  0  0  0  0  0
   19.7813  -18.8650    0.0000 C   0  0  0  0  0  0  0  0  0  0  0  0
   21.0397  -19.5641    0.0000 C   0  0  0  0  0  0  0  0  0  0  0  0
   21.0397  -21.0322    0.0000 C   0  0  0  0  0  0  0  0  0  0  0  0
   19.7813  -21.7313    0.0000 N   0  0  0  0  0  0  0  0  0  0  0  0
   18.5229  -21.0322    0.0000 C   0  0  0  0  0  0  0  0  0  0  0  0
   18.5229  -19.6340    0.0000 N   0  0  0  0  0  0  0  0  0  0  0  0
   22.2281  -21.7313    0.0000 N   0  0  0  0  0  0  0  0  0  0  0  0
   22.2281  -18.8650    0.0000 C   0  0  0  0  0  0  0  0  0  0  0  0
   23.4166  -18.1659    0.0000 N   0  0  0  0  0  0  0  0  0  0  0  0
   18.5928  -16.8377    0.0000 C   0  0  0  0  0  0  0  0  0  0  0  0
   17.4044  -17.5368    0.0000 C   0  0  0  0  0  0  0  0  0  0  0  0
   18.5928  -15.4395    0.0000 C   0  0  0  0  0  0  0  0  0  0  0  0
   19.8037  -14.7404    0.0000 C   0  0  0  0  0  0  0  0  0  0  0  0
   19.8037  -13.3422    0.0000 C   0  0  0  0  0  0  0  0  0  0  0  0
   18.5928  -12.6431    0.0000 N   0  0  0  0  0  0  0  0  0  0  0  0
   17.3820  -13.3422    0.0000 N   0  0  0  0  0  0  0  0  0  0  0  0
   17.3820  -14.7404    0.0000 C   0  0  0  0  0  0  0  0  0  0  0  0
   16.1881  -15.4299    0.0000 C   0  0  0  0  0  0  0  0  0  0  0  0
   15.0022  -14.7453    0.0000 C   0  0  0  0  0  0  0  0  0  0  0  0
   13.7914  -15.4445    0.0000 C   0  0  0  0  0  0  0  0  0  0  0  0
   13.7915  -16.8427    0.0000 C   0  0  0  0  0  0  0  0  0  0  0  0
   14.9772  -17.5272    0.0000 C   0  0  0  0  0  0  0  0  0  0  0  0
   16.1881  -16.8281    0.0000 C   0  0  0  0  0  0  0  0  0  0  0  0
   20.8427  -12.4066    0.0000 N   0  0  0  0  0  0  0  0  0  0  0  0
   20.2741  -11.1293    0.0000 C   0  0  0  0  0  0  0  0  0  0  0  0
   18.8836  -11.2755    0.0000 C   0  0  0  0  0  0  0  0  0  0  0  0
   17.9277  -10.2143    0.0000 Cl  0  0  0  0  0  0  0  0  0  0  0  0
  1  2  1  0     0  0
  2  3  2  0     0  0
  3  4  1  0     0  0
  4  5  2  0     0  0
  5  6  1  0     0  0
  6  7  2  0     0  0
  2  7  1  0     0  0
  4  8  1  0     0  0
  3  9  1  0     0  0
  9 10  3  0     0  0
  1 11  1  0     0  0
 11 12  1  1     0  0
 11 13  1  0     0  0
 13 14  2  0     0  0
 14 15  1  0     0  0
 15 16  1  0     0  0
 16 17  1  0     0  0
 17 18  2  0     0  0
 13 18  1  0     0  0
 18 19  1  0     0  0
 19 20  2  0     0  0
 20 21  1  0     0  0
 21 22  2  0     0  0
 22 23  1  0     0  0
 23 24  2  0     0  0
 19 24  1  0     0  0
 15 25  2  0     0  0
 25 26  1  0     0  0
 26 27  2  0     0  0
 16 27  1  0     0  0
 27 28  1  0     0  0
M  END
