 
 
 
 48 51  0  0  1  0  0  0  0  0999 V2000
    9.0233  -14.5492    0.0000 O   0  0  0  0  0  0  0  0  0  0  0  0
    9.0233  -15.9482    0.0000 C   0  0  0  0  0  0  0  0  0  0  0  0
   10.2124  -16.6477    0.0000 C   0  0  0  0  0  0  0  0  0  0  0  0
   11.4715  -15.9482    0.0000 C   0  0  0  0  0  0  0  0  0  0  0  0
   11.4715  -14.5492    0.0000 C   0  0  0  0  0  0  0  0  0  0  0  0
   10.2124  -13.8497    0.0000 C   0  0  0  0  0  0  0  0  0  0  0  0
   12.5907  -16.6477    0.0000 N   0  0  0  0  0  0  0  0  0  0  0  0
   12.7306  -18.0466    0.0000 C   0  0  0  0  0  0  0  0  0  0  0  0
   14.0596  -18.3264    0.0000 C   0  0  0  0  0  0  0  0  0  0  0  0
   14.8290  -17.1373    0.0000 C   0  0  0  0  0  0  0  0  0  0  0  0
   13.8497  -16.0881    0.0000 C   0  0  0  0  0  0  0  0  0  0  0  0
   15.5285  -18.3264    0.0000 C   0  0  0  0  0  0  0  0  0  0  0  0
   16.0181  -15.0388    0.0000 C   0  0  0  0  0  0  0  0  0  0  0  0
   16.0181  -16.4378    0.0000 C   0  0  0  0  0  0  0  0  0  0  0  0
   17.2072  -17.1373    0.0000 C   0  0  0  0  0  0  0  0  0  0  0  0
   18.4663  -16.4378    0.0000 C   0  0  0  0  0  0  0  0  0  0  0  0
   18.4663  -15.0388    0.0000 C   0  0  0  0  0  0  0  0  0  0  0  0
   17.2072  -14.3394    0.0000 C   0  0  0  0  0  0  0  0  0  0  0  0
   13.7098  -19.6554    0.0000 H   0  0  0  0  0  0  0  0  0  0  0  0
   19.6554  -14.3394    0.0000 C   0  0  0  0  0  0  0  0  0  0  0  0
   20.9145  -15.0388    0.0000 C   0  0  0  0  0  0  0  0  0  0  0  0
   22.1036  -14.3394    0.0000 C   0  0  0  0  0  0  0  0  0  0  0  0
   22.1036  -12.9404    0.0000 C   0  0  0  0  0  0  0  0  0  0  0  0
   20.8445  -12.2409    0.0000 N   0  0  0  0  0  0  0  0  0  0  0  0
   19.6554  -12.9404    0.0000 C   0  0  0  0  0  0  0  0  0  0  0  0
   23.2927  -12.2409    0.0000 N   0  0  0  0  0  0  0  0  0  0  0  0
   23.2927  -15.0388    0.0000 C   0  0  0  0  0  0  0  0  0  0  0  0
   24.5518  -14.3394    0.0000 O   0  0  0  0  0  0  0  0  0  0  0  0
   23.2927  -16.4378    0.0000 N   0  0  0  0  0  0  0  0  0  0  0  0
   24.5518  -17.1373    0.0000 C   0  0  0  0  0  0  0  0  0  0  0  0
   24.5518  -18.5363    0.0000 C   0  0  0  0  0  0  0  0  0  0  0  0
   25.8109  -19.2357    0.0000 C   0  0  0  0  0  0  0  0  0  0  0  0
   27.0000  -18.5363    0.0000 C   0  0  0  0  0  0  0  0  0  0  0  0
   27.0000  -17.1373    0.0000 C   0  0  0  0  0  0  0  0  0  0  0  0
   25.7409  -16.4378    0.0000 C   0  0  0  0  0  0  0  0  0  0  0  0
   28.1891  -19.2357    0.0000 O   0  0  0  0  0  0  0  0  0  0  0  0
   25.2513  -18.3264    0.0000 C   0  0  0  0  0  0  0  0  0  0  0  0
   26.3005  -17.3471    0.0000 C   0  0  0  0  0  0  0  0  0  0  0  0
   31.4300  -13.9300    0.0000 C   0  0  0  0  0  0  0  0  0  0  0  0
   32.6424  -14.6300    0.0000 C   0  0  0  0  0  0  0  0  0  0  0  0
   30.2176  -14.6300    0.0000 O   0  0  0  0  0  0  0  0  0  0  0  0
   31.4300  -12.5300    0.0000 O   0  0  0  0  0  0  0  0  0  0  0  0
   33.8379  -13.9396    0.0000 C   0  0  0  0  0  0  0  0  0  0  0  0
   35.0253  -14.6251    0.0000 C   0  0  0  0  0  0  0  0  0  0  0  0
   36.2165  -13.9371    0.0000 O   0  0  0  0  0  0  0  0  0  0  0  0
   35.0255  -16.0298    0.0000 O   0  0  0  0  0  0  0  0  0  0  0  0
   33.3200  -19.0400    0.0000 O   0  0  0  0  0  0  0  0  0  0  0  0
   36.4700  -18.9700    0.0000 O   0  0  0  0  0  0  0  0  0  0  0  0
  1  2  1  0     0  0
  2  3  1  0     0  0
  3  4  1  0     0  0
  4  5  1  0     0  0
  5  6  1  0     0  0
  1  6  1  0     0  0
  4  7  1  0     0  0
  7  8  1  0     0  0
  8  9  1  0     0  0
  9 10  1  0     0  0
 10 11  1  0     0  0
  7 11  1  0     0  0
  9 12  1  0     0  0
 12 10  1  0     0  0
 13 14  2  0     0  0
 14 15  1  0     0  0
 15 16  2  0     0  0
 16 17  1  0     0  0
 17 18  2  0     0  0
 13 18  1  0     0  0
 10 14  1  1     0  0
  9 19  1  1     0  0
 17 20  1  0     0  0
 20 21  2  0     0  0
 21 22  1  0     0  0
 22 23  2  0     0  0
 23 24  1  0     0  0
 24 25  2  0     0  0
 20 25  1  0     0  0
 23 26  1  0     0  0
 22 27  1  0     0  0
 27 28  2  0     0  0
 27 29  1  0     0  0
 29 30  1  0     0  0
 30 31  1  0     0  0
 31 32  1  0     0  0
 32 33  1  0     0  0
 33 34  1  0     0  0
 34 35  1  0     0  0
 30 35  1  0     0  0
 33 36  1  0     0  0
 30 37  1  0     0  0
 33 38  1  0     0  0
 38 37  1  0     0  0
 39 40  1  0     0  0
 39 41  1  0     0  0
 39 42  2  0     0  0
 40 43  2  0     0  0
 43 44  1  0     0  0
 44 45  1  0     0  0
 44 46  2  0     0  0
M  END
