 
 
 
 66 67  0  0  1  0  0  0  0  0999 V2000
    4.1300  -12.1800    0.0000 N   0  0  0  0  0  0  0  0  0  0  0  0
    5.3200  -11.4800    0.0000 O   0  0  0  0  0  0  0  0  0  0  0  0
    6.5100  -12.1800    0.0000 C   0  0  0  0  0  0  0  0  0  0  0  0
    7.7000  -11.4800    0.0000 C   0  0  0  0  0  0  0  0  0  0  0  0
    8.8900  -12.1800    0.0000 O   0  0  0  0  0  0  0  0  0  0  0  0
   10.0800  -11.4800    0.0000 C   0  0  0  0  0  0  0  0  0  0  0  0
   11.2700  -12.1800    0.0000 C   0  0  0  0  0  0  0  0  0  0  0  0
   12.4600  -11.4800    0.0000 O   0  0  0  0  0  0  0  0  0  0  0  0
   13.6500  -12.1800    0.0000 C   0  0  0  0  0  0  0  0  0  0  0  0
   14.8400  -11.4800    0.0000 C   0  0  0  0  0  0  0  0  0  0  0  0
   16.0300  -12.1800    0.0000 O   0  0  0  0  0  0  0  0  0  0  0  0
   17.2200  -11.4800    0.0000 C   0  0  0  0  0  0  0  0  0  0  0  0
   18.4100  -12.1800    0.0000 C   0  0  0  0  0  0  0  0  0  0  0  0
   19.6000  -11.4800    0.0000 N   0  0  0  0  0  0  0  0  0  0  0  0
   20.7900  -12.1800    0.0000 C   0  0  0  0  0  0  0  0  0  0  0  0
   19.6000  -10.0800    0.0000 C   0  0  0  0  0  0  0  0  0  0  0  0
   21.9800  -11.4800    0.0000 C   0  0  0  0  0  0  0  0  0  0  0  0
   23.1700  -12.1800    0.0000 N   0  0  0  0  0  0  0  0  0  0  0  0
   21.9800  -10.0800    0.0000 O   0  0  0  0  0  0  0  0  0  0  0  0
   20.7900  -13.5800    0.0000 C   0  0  0  0  0  0  0  0  0  0  0  0
   19.6000  -14.2800    0.0000 C   0  0  0  0  0  0  0  0  0  0  0  0
   21.9800  -14.2800    0.0000 C   0  0  0  0  0  0  0  0  0  0  0  0
   24.3600  -11.4800    0.0000 C   0  0  0  0  0  0  0  0  0  0  0  0
   25.5500  -12.1800    0.0000 C   0  0  0  0  0  0  0  0  0  0  0  0
   24.3600  -10.0800    0.0000 C   0  0  0  0  0  0  0  0  0  0  0  0
   25.5500   -9.3800    0.0000 C   0  0  0  0  0  0  0  0  0  0  0  0
   23.1700   -9.3800    0.0000 C   0  0  0  0  0  0  0  0  0  0  0  0
   26.7400  -11.4800    0.0000 N   0  0  0  0  0  0  0  0  0  0  0  0
   25.5500  -13.5800    0.0000 O   0  0  0  0  0  0  0  0  0  0  0  0
   27.9300  -12.1800    0.0000 C   0  0  0  0  0  0  0  0  0  0  0  0
   26.7400  -10.0800    0.0000 C   0  0  0  0  0  0  0  0  0  0  0  0
   29.1200  -11.4800    0.0000 C   0  0  0  0  0  0  0  0  0  0  0  0
   27.9300  -13.5800    0.0000 C   0  0  0  0  0  0  0  0  0  0  0  0
   29.1200  -14.2800    0.0000 C   0  0  0  0  0  0  0  0  0  0  0  0
   26.7400  -14.2800    0.0000 C   0  0  0  0  0  0  0  0  0  0  0  0
   30.3100  -12.1800    0.0000 C   0  0  0  0  0  0  0  0  0  0  0  0
   29.1200  -10.0800    0.0000 O   0  0  0  0  0  0  0  0  0  0  0  0
   30.3100   -9.3800    0.0000 C   0  0  0  0  0  0  0  0  0  0  0  0
   31.5000  -11.4800    0.0000 C   0  0  0  0  0  0  0  0  0  0  0  0
   32.6900  -12.1800    0.0000 N   0  0  0  0  0  0  0  0  0  0  0  0
   31.5000  -10.0800    0.0000 O   0  0  0  0  0  0  0  0  0  0  0  0
   33.1100  -13.5100    0.0000 C   0  0  0  0  0  0  0  0  0  0  0  0
   34.5800  -13.5100    0.0000 C   0  0  0  0  0  0  0  0  0  0  0  0
   35.0000  -12.1800    0.0000 C   0  0  0  0  0  0  0  0  0  0  0  0
   33.8800  -11.3400    0.0000 C   0  0  0  0  0  0  0  0  0  0  0  0
   33.8800   -9.9400    0.0000 C   0  0  0  0  0  0  0  0  0  0  0  0
   35.0700   -9.2400    0.0000 C   0  0  0  0  0  0  0  0  0  0  0  0
   32.6900   -9.2400    0.0000 O   0  0  0  0  0  0  0  0  0  0  0  0
   36.2600   -9.9400    0.0000 C   0  0  0  0  0  0  0  0  0  0  0  0
   35.0700   -7.8400    0.0000 C   0  0  0  0  0  0  0  0  0  0  0  0
   37.4500   -9.2400    0.0000 N   0  0  0  0  0  0  0  0  0  0  0  0
   38.6400   -9.9400    0.0000 C   0  0  0  0  0  0  0  0  0  0  0  0
   36.2600  -11.3400    0.0000 O   0  0  0  0  0  0  0  0  0  0  0  0
   39.8300   -9.2400    0.0000 C   0  0  0  0  0  0  0  0  0  0  0  0
   38.6400  -11.3400    0.0000 C   0  0  0  0  0  0  0  0  0  0  0  0
   41.0900   -9.9400    0.0000 C   0  0  0  0  0  0  0  0  0  0  0  0
   32.6900   -7.8400    0.0000 C   0  0  0  0  0  0  0  0  0  0  0  0
   32.6676  -10.6400    0.0000 H   0  0  0  0  0  0  0  0  0  0  0  0
   26.7400  -15.6800    0.0000 C   0  0  0  0  0  0  0  0  0  0  0  0
   37.4276  -12.0400    0.0000 O   0  0  0  0  0  0  0  0  0  0  0  0
   39.8524  -12.0400    0.0000 O   0  0  0  0  0  0  0  0  0  0  0  0
   41.1131  -11.3398    0.0000 C   0  0  0  0  0  0  0  0  0  0  0  0
   42.3369  -12.0197    0.0000 C   0  0  0  0  0  0  0  0  0  0  0  0
   43.5376  -11.2998    0.0000 C   0  0  0  0  0  0  0  0  0  0  0  0
   43.5145   -9.9000    0.0000 C   0  0  0  0  0  0  0  0  0  0  0  0
   42.2907   -9.2201    0.0000 C   0  0  0  0  0  0  0  0  0  0  0  0
  1  2  1  0     0  0
  2  3  1  0     0  0
  3  4  1  0     0  0
  4  5  1  0     0  0
  5  6  1  0     0  0
  6  7  1  0     0  0
  7  8  1  0     0  0
  8  9  1  0     0  0
  9 10  1  0     0  0
 10 11  1  0     0  0
 11 12  1  0     0  0
 12 13  1  0     0  0
 13 14  1  0     0  0
 14 15  1  0     0  0
 14 16  1  0     0  0
 15 17  1  0     0  0
 17 18  1  0     0  0
 17 19  2  0     0  0
 15 20  1  6     0  0
 20 21  1  0     0  0
 20 22  1  0     0  0
 18 23  1  0     0  0
 23 24  1  0     0  0
 23 25  1  1     0  0
 25 26  1  0     0  0
 25 27  1  0     0  0
 24 28  1  0     0  0
 24 29  2  0     0  0
 30 28  1  6     0  0
 28 31  1  0     0  0
 30 32  1  0     0  0
 30 33  1  0     0  0
 33 34  1  1     0  0
 33 35  1  0     0  0
 32 36  1  0     0  0
 32 37  1  6     0  0
 37 38  1  0     0  0
 36 39  1  0     0  0
 39 40  1  0     0  0
 39 41  2  0     0  0
 40 42  1  0     0  0
 42 43  1  0     0  0
 43 44  1  0     0  0
 44 45  1  0     0  0
 40 45  1  0     0  0
 45 46  1  0     0  0
 46 47  1  0     0  0
 46 48  1  6     0  0
 47 49  1  0     0  0
 47 50  1  1     0  0
 49 51  1  0     0  0
 51 52  1  0     0  0
 49 53  2  0     0  0
 52 54  1  1     0  0
 52 55  1  0     0  0
 54 56  1  0     0  0
 48 57  1  0     0  0
 45 58  1  1     0  0
 35 59  1  0     0  0
 55 60  2  0     0  0
 55 61  1  0     0  0
 56 62  2  0     0  0
 62 63  1  0     0  0
 63 64  2  0     0  0
 64 65  1  0     0  0
 65 66  2  0     0  0
 56 66  1  0     0  0
M  END
