 
 
 
 60 65  0  0  1  0  0  0  0  0999 V2000
    9.5235  -18.5567    0.0000 C   0  0  0  0  0  0  0  0  0  0  0  0
    9.5235  -19.9572    0.0000 C   0  0  0  0  0  0  0  0  0  0  0  0
   10.7139  -20.6575    0.0000 C   0  0  0  0  0  0  0  0  0  0  0  0
   11.9743  -19.9572    0.0000 C   0  0  0  0  0  0  0  0  0  0  0  0
   11.9743  -18.5567    0.0000 C   0  0  0  0  0  0  0  0  0  0  0  0
   10.7139  -17.8565    0.0000 C   0  0  0  0  0  0  0  0  0  0  0  0
    8.3330  -20.6575    0.0000 C   0  0  0  0  0  0  0  0  0  0  0  0
   13.1648  -17.8565    0.0000 C   0  0  0  0  0  0  0  0  0  0  0  0
    7.1426  -19.9572    0.0000 O   0  0  0  0  0  0  0  0  0  0  0  0
    8.3330  -22.0580    0.0000 O   0  0  0  0  0  0  0  0  0  0  0  0
    8.3330  -19.2570    0.0000 C   0  0  0  0  0  0  0  0  0  0  0  0
    8.3330  -17.8565    0.0000 F   0  0  0  0  0  0  0  0  0  0  0  0
   14.3552  -18.5567    0.0000 C   0  0  0  0  0  0  0  0  0  0  0  0
   15.6157  -17.8565    0.0000 C   0  0  0  0  0  0  0  0  0  0  0  0
   15.6157  -16.4560    0.0000 C   0  0  0  0  0  0  0  0  0  0  0  0
   14.4252  -15.7557    0.0000 C   0  0  0  0  0  0  0  0  0  0  0  0
   13.1648  -16.4560    0.0000 C   0  0  0  0  0  0  0  0  0  0  0  0
   16.8061  -18.5567    0.0000 C   0  0  0  0  0  0  0  0  0  0  0  0
   17.9965  -17.8565    0.0000 C   0  0  0  0  0  0  0  0  0  0  0  0
   17.9965  -16.4560    0.0000 C   0  0  0  0  0  0  0  0  0  0  0  0
   16.8061  -15.7557    0.0000 C   0  0  0  0  0  0  0  0  0  0  0  0
   19.2570  -15.7557    0.0000 C   0  0  0  0  0  0  0  0  0  0  0  0
   19.2570  -14.3552    0.0000 C   0  0  0  0  0  0  0  0  0  0  0  0
   17.9965  -13.6550    0.0000 C   0  0  0  0  0  0  0  0  0  0  0  0
   16.8061  -14.3552    0.0000 C   0  0  0  0  0  0  0  0  0  0  0  0
   20.4474  -16.4560    0.0000 C   0  0  0  0  0  0  0  0  0  0  0  0
   21.6378  -15.7557    0.0000 C   0  0  0  0  0  0  0  0  0  0  0  0
   21.6378  -14.3552    0.0000 C   0  0  0  0  0  0  0  0  0  0  0  0
   20.4474  -13.6550    0.0000 C   0  0  0  0  0  0  0  0  0  0  0  0
   22.6882  -13.3749    0.0000 C   0  0  0  0  0  0  0  0  0  0  0  0
   22.1280  -12.1144    0.0000 C   0  0  0  0  0  0  0  0  0  0  0  0
   20.7275  -12.2544    0.0000 C   0  0  0  0  0  0  0  0  0  0  0  0
   19.8172  -11.2041    0.0000 C   0  0  0  0  0  0  0  0  0  0  0  0
   18.4167  -11.4842    0.0000 C   0  0  0  0  0  0  0  0  0  0  0  0
   20.2373   -9.8736    0.0000 C   0  0  0  0  0  0  0  0  0  0  0  0
   22.8283  -15.0555    0.0000 N   0  0  0  0  0  0  0  0  0  0  0  0
   24.0187  -14.3552    0.0000 C   0  0  0  0  0  0  0  0  0  0  0  0
   25.2091  -15.0555    0.0000 C   0  0  0  0  0  0  0  0  0  0  0  0
   26.3996  -14.3552    0.0000 N   0  0  0  0  0  0  0  0  0  0  0  0
   26.3996  -12.9547    0.0000 C   0  0  0  0  0  0  0  0  0  0  0  0
   27.5900  -15.0555    0.0000 C   0  0  0  0  0  0  0  0  0  0  0  0
   28.8505  -14.3552    0.0000 C   0  0  0  0  0  0  0  0  0  0  0  0
   28.8505  -12.9547    0.0000 S   0  0  0  0  0  0  0  0  0  0  0  0
   27.5900  -12.2544    0.0000 C   0  0  0  0  0  0  0  0  0  0  0  0
   28.8505  -11.5542    0.0000 O   0  0  0  0  0  0  0  0  0  0  0  0
   30.1109  -13.6550    0.0000 O   0  0  0  0  0  0  0  0  0  0  0  0
   19.2570  -12.9547    0.0000 H   0  0  0  0  0  0  0  0  0  0  0  0
   20.4474  -15.0555    0.0000 H   0  0  0  0  0  0  0  0  0  0  0  0
   19.2570  -17.1562    0.0000 C   0  0  0  0  0  0  0  0  0  0  0  0
   17.9965  -15.0555    0.0000 C   0  0  0  0  0  0  0  0  0  0  0  0
   15.6157  -15.0555    0.0000 C   0  0  0  0  0  0  0  0  0  0  0  0
   16.8061  -17.1562    0.0000 H   0  0  0  0  0  0  0  0  0  0  0  0
   15.6157  -19.2570    0.0000 H   0  0  0  0  0  0  0  0  0  0  0  0
   13.1648  -19.2570    0.0000 C   0  0  0  0  0  0  0  0  0  0  0  0
   14.3552  -19.9572    0.0000 C   0  0  0  0  0  0  0  0  0  0  0  0
   24.1500  -19.8100    0.0000 S   0  0  0  0  0  0  0  0  0  0  0  0
   24.1500  -18.4100    0.0000 O   0  0  0  0  0  0  0  0  0  0  0  0
   24.1500  -21.2100    0.0000 O   0  0  0  0  0  0  0  0  0  0  0  0
   22.7500  -19.8100    0.0000 C   0  0  0  0  0  0  0  0  0  0  0  0
   25.5500  -19.8100    0.0000 O   0  0  0  0  0  0  0  0  0  0  0  0
  1  2  1  0     0  0
  2  3  1  0     0  0
  3  4  1  0     0  0
  4  5  1  0     0  0
  5  6  2  0     0  0
  1  6  1  0     0  0
  2  7  1  6     0  0
  5  8  1  0     0  0
  7  9  2  0     0  0
  7 10  1  0     0  0
  2 11  1  1     0  0
 11 12  1  0     0  0
  8 13  1  0     0  0
 13 14  1  0     0  0
 14 15  1  0     0  0
 15 16  1  0     0  0
 16 17  1  0     0  0
  8 17  2  0     0  0
 14 18  1  0     0  0
 18 19  1  0     0  0
 19 20  1  0     0  0
 20 21  1  0     0  0
 15 21  1  0     0  0
 20 22  1  0     0  0
 22 23  1  0     0  0
 23 24  1  0     0  0
 24 25  1  0     0  0
 21 25  1  0     0  0
 22 26  1  0     0  0
 26 27  1  0     0  0
 27 28  1  0     0  0
 23 29  1  0     0  0
 28 29  1  0     0  0
 28 30  1  0     0  0
 30 31  1  0     0  0
 31 32  1  0     0  0
 29 32  1  0     0  0
 32 33  1  6     0  0
 33 34  2  0     0  0
 33 35  1  0     0  0
 28 36  1  1     0  0
 36 37  1  0     0  0
 37 38  1  0     0  0
 38 39  1  0     0  0
 40 39  1  0     0  0
 39 41  1  0     0  0
 41 42  1  0     0  0
 42 43  1  0     0  0
 43 44  1  0     0  0
 40 44  1  0     0  0
 43 45  2  0     0  0
 43 46  2  0     0  0
 23 47  1  1     0  0
 29 48  1  6     0  0
 22 49  1  6     0  0
 20 50  1  1     0  0
 15 51  1  1     0  0
 21 52  1  6     0  0
 14 53  1  6     0  0
 13 54  1  6     0  0
 13 55  1  1     0  0
 56 57  2  0     0  0
 56 58  2  0     0  0
 56 59  1  0     0  0
 56 60  1  0     0  0
M  END
