 
 
 
 25 27  0  0  1  0  0  0  0  0999 V2000
   16.3100  -12.8800    0.0000 S   0  0  0  0  0  0  0  0  0  0  0  0
   16.7300  -14.2800    0.0000 C   0  0  0  0  0  0  0  0  0  0  0  0
   15.6100  -15.1200    0.0000 C   0  0  0  0  0  0  0  0  0  0  0  0
   14.4200  -14.2100    0.0000 N   0  0  0  0  0  0  0  0  0  0  0  0
   14.9100  -12.8800    0.0000 C   0  0  0  0  0  0  0  0  0  0  0  0
   14.0700  -11.7600    0.0000 O   0  0  0  0  0  0  0  0  0  0  0  0
   17.9900  -14.7700    0.0000 C   0  0  0  0  0  0  0  0  0  0  0  0
   18.1300  -16.1700    0.0000 N   0  0  0  0  0  0  0  0  0  0  0  0
   17.0100  -17.0100    0.0000 C   0  0  0  0  0  0  0  0  0  0  0  0
   15.7500  -16.4500    0.0000 N   0  0  0  0  0  0  0  0  0  0  0  0
   17.1500  -18.4100    0.0000 N   0  0  0  0  0  0  0  0  0  0  0  0
   13.0900  -14.6300    0.0000 C   0  0  0  0  0  0  0  0  0  0  0  0
   12.0400  -13.7900    0.0000 O   0  0  0  0  0  0  0  0  0  0  0  0
   10.8500  -14.5600    0.0000 C   0  0  0  0  0  0  0  0  0  0  0  0
   11.2700  -15.9600    0.0000 C   0  0  0  0  0  0  0  0  0  0  0  0
   12.7400  -15.9600    0.0000 C   0  0  0  0  0  0  0  0  0  0  0  0
    9.6600  -15.1900    0.0000 C   0  0  0  0  0  0  0  0  0  0  0  0
    8.4700  -14.5600    0.0000 O   0  0  0  0  0  0  0  0  0  0  0  0
    7.2800  -15.3300    0.0000 C   0  0  0  0  0  0  0  0  0  0  0  0
    7.2800  -16.8000    0.0000 C   0  0  0  0  0  0  0  0  0  0  0  0
    6.0200  -14.7700    0.0000 O   0  0  0  0  0  0  0  0  0  0  0  0
    9.6600  -16.5900    0.0000 C   0  0  0  0  0  0  0  0  0  0  0  0
    8.6100  -17.3600    0.0000 C   0  0  0  0  0  0  0  0  0  0  0  0
   10.1500  -13.3700    0.0000 H   0  0  0  0  0  0  0  0  0  0  0  0
   13.5100  -17.0800    0.0000 O   0  0  0  0  0  0  0  0  0  0  0  0
  1  2  1  0     0  0
  2  3  1  0     0  0
  3  4  1  0     0  0
  4  5  1  0     0  0
  1  5  1  0     0  0
  5  6  2  0     0  0
  2  7  2  0     0  0
  7  8  1  0     0  0
  8  9  2  0     0  0
  9 10  1  0     0  0
  3 10  2  0     0  0
  9 11  1  0     0  0
 12  4  1  1     0  0
 12 13  1  0     0  0
 13 14  1  0     0  0
 14 15  1  0     0  0
 15 16  1  0     0  0
 12 16  1  0     0  0
 17 18  1  0     0  0
 17 14  1  0     0  0
 18 19  1  0     0  0
 19 20  1  0     0  0
 19 21  2  0     0  0
 17 22  1  6     0  0
 22 23  1  0     0  0
 14 24  1  6     0  0
 16 25  1  6     0  0
M  END
