 
 
 
 66 71  0  0  1  0  0  0  0  0999 V2000
   23.8000  -14.3500    0.0000 C   0  0  1  0  0  0  0  0  0  0  0  0
   24.9200  -14.9800    0.0000 C   0  0  1  0  0  0  0  0  0  0  0  0
   23.0300  -15.1900    0.0000 C   0  0  1  0  0  0  0  0  0  0  0  0
   23.8000  -13.0200    0.0000 C   0  0  2  0  0  0  0  0  0  0  0  0
   26.0400  -14.3500    0.0000 C   0  0  2  0  0  0  0  0  0  0  0  0
   26.1100  -15.6800    0.0000 C   0  0  0  0  0  0  0  0  0  0  0  0
   24.9200  -17.2200    0.0000 O   0  0  0  0  0  0  0  0  0  0  0  0
   20.5800  -15.1900    0.0000 C   0  0  1  0  0  0  0  0  0  0  0  0
   23.0300  -17.5000    0.0000 O   0  0  0  0  0  0  0  0  0  0  0  0
   22.1900  -11.9700    0.0000 C   0  0  0  0  0  0  0  0  0  0  0  0
   24.9200  -12.3900    0.0000 C   0  0  2  0  0  0  0  0  0  0  0  0
   23.5200  -11.7600    0.0000 C   0  0  0  0  0  0  0  0  0  0  0  0
   27.0900  -15.0500    0.0000 O   0  0  0  0  0  0  0  0  0  0  0  0
   26.0400  -13.0200    0.0000 C   0  0  0  0  0  0  0  0  0  0  0  0
   26.1100  -17.9200    0.0000 C   0  0  0  0  0  0  0  0  0  0  0  0
   20.5800  -13.8600    0.0000 C   0  0  3  0  0  0  0  0  0  0  0  0
   19.4600  -15.8200    0.0000 C   0  0  0  0  0  0  0  0  0  0  0  0
   20.5800  -16.3800    0.0000 O   0  0  0  0  0  0  0  0  0  0  0  0
   21.9100  -18.1300    0.0000 C   0  0  0  0  0  0  0  0  0  0  0  0
   19.4600  -11.9700    0.0000 C   0  0  1  0  0  0  0  0  0  0  0  0
   22.1900  -10.5700    0.0000 O   0  0  0  0  0  0  0  0  0  0  0  0
   24.9200  -11.1300    0.0000 O   0  0  0  0  0  0  0  0  0  0  0  0
   27.3000  -17.2200    0.0000 C   0  0  0  0  0  0  0  0  0  0  0  0
   26.1100  -19.3200    0.0000 O   0  0  0  0  0  0  0  0  0  0  0  0
   19.4600  -13.2300    0.0000 C   0  0  0  0  0  0  0  0  0  0  0  0
   21.6300  -12.8800    0.0000 C   0  0  0  0  0  0  0  0  0  0  0  0
   21.6300  -14.3500    0.0000 C   0  0  0  0  0  0  0  0  0  0  0  0
   18.3400  -15.1900    0.0000 C   0  0  1  0  0  0  0  0  0  0  0  0
   21.9100  -19.3900    0.0000 C   0  0  0  0  0  0  0  0  0  0  0  0
   20.8600  -17.4300    0.0000 O   0  0  0  0  0  0  0  0  0  0  0  0
   18.4100  -11.3400    0.0000 O   0  0  0  0  0  0  0  0  0  0  0  0
   18.3400  -13.8600    0.0000 C   0  0  0  0  0  0  0  0  0  0  0  0
   16.9400  -15.8900    0.0000 O   0  0  0  0  0  0  0  0  0  0  0  0
   17.2900  -12.9500    0.0000 C   0  0  0  0  0  0  0  0  0  0  0  0
   15.7500  -15.2600    0.0000 C   0  0  0  0  0  0  0  0  0  0  0  0
   14.6300  -15.8900    0.0000 C   0  0  1  0  0  0  0  0  0  0  0  0
   15.7500  -13.9300    0.0000 O   0  0  0  0  0  0  0  0  0  0  0  0
   13.5100  -15.2600    0.0000 C   0  0  2  0  0  0  0  0  0  0  0  0
   14.6300  -17.2200    0.0000 O   0  0  0  0  0  0  0  0  0  0  0  0
   12.3200  -15.8900    0.0000 C   0  0  0  0  0  0  0  0  0  0  0  0
   13.5100  -13.9300    0.0000 N   0  0  0  0  0  0  0  0  0  0  0  0
   11.2000  -15.2600    0.0000 C   0  0  0  0  0  0  0  0  0  0  0  0
   12.3200  -17.2200    0.0000 C   0  0  0  0  0  0  0  0  0  0  0  0
   12.3200  -13.2300    0.0000 C   0  0  0  0  0  0  0  0  0  0  0  0
   10.0100  -15.8900    0.0000 C   0  0  0  0  0  0  0  0  0  0  0  0
   11.2000  -17.9200    0.0000 C   0  0  0  0  0  0  0  0  0  0  0  0
   12.3200  -11.9000    0.0000 O   0  0  0  0  0  0  0  0  0  0  0  0
   11.2000  -13.9300    0.0000 O   0  0  0  0  0  0  0  0  0  0  0  0
   10.0100  -17.2200    0.0000 C   0  0  0  0  0  0  0  0  0  0  0  0
   11.1300  -11.2700    0.0000 C   0  0  3  0  0  0  0  0  0  0  0  0
   11.1300   -9.8700    0.0000 C   0  0  0  0  0  0  0  0  0  0  0  0
    9.9400  -11.9000    0.0000 C   0  0  0  0  0  0  0  0  0  0  0  0
    9.9400  -10.5700    0.0000 C   0  0  0  0  0  0  0  0  0  0  0  0
   23.8700  -15.6800    0.0000 H   0  0  0  0  0  0  0  0  0  0  0  0
   20.7200  -20.0200    0.0000 C   0  0  0  0  0  0  0  0  0  0  0  0
   20.7200  -21.4200    0.0000 C   0  0  0  0  0  0  0  0  0  0  0  0
   21.9100  -22.1200    0.0000 C   0  0  0  0  0  0  0  0  0  0  0  0
   23.1000  -21.4900    0.0000 C   0  0  0  0  0  0  0  0  0  0  0  0
   23.1000  -20.0900    0.0000 C   0  0  0  0  0  0  0  0  0  0  0  0
   15.8200  -17.9200    0.0000 C   0  0  0  0  0  0  0  0  0  0  0  0
   17.0100  -17.2200    0.0000 O   0  0  0  0  0  0  0  0  0  0  0  0
   15.8200  -19.3200    0.0000 C   0  0  0  0  0  0  0  0  0  0  0  0
   17.0100  -20.0200    0.0000 C   0  0  0  0  0  0  0  0  0  0  0  0
   18.2000  -19.3200    0.0000 C   0  0  0  0  0  0  0  0  0  0  0  0
   19.3900  -20.0200    0.0000 O   0  0  0  0  0  0  0  0  0  0  0  0
   18.2000  -17.9200    0.0000 O   0  0  0  0  0  0  0  0  0  0  0  0
  2  7  1  6     0  0
  3  8  1  0     0  0
  3  9  1  6     0  0
  4 10  1  0     0  0
  4 11  1  0     0  0
  4 12  1  1     0  0
  5 13  1  1     0  0
  5 14  1  0     0  0
  7 15  1  0     0  0
  8 16  1  0     0  0
  8 17  1  0     0  0
  8 18  1  1     0  0
  9 19  1  0     0  0
 10 20  1  0     0  0
 10 21  2  0     0  0
 11 22  1  1     0  0
 15 23  1  0     0  0
 15 24  2  0     0  0
 16 25  1  0     0  0
 16 26  1  0     0  0
 16 27  1  0     0  0
 17 28  1  0     0  0
 19 29  1  0     0  0
 19 30  2  0     0  0
 20 31  1  1     0  0
 25 32  2  0     0  0
 28 33  1  6     0  0
 32 34  1  0     0  0
 33 35  1  0     0  0
 35 36  1  0     0  0
 35 37  2  0     0  0
 36 38  1  0     0  0
 36 39  1  6     0  0
 38 40  1  0     0  0
 38 41  1  6     0  0
 40 42  2  0     0  0
 40 43  1  0     0  0
 41 44  1  0     0  0
 42 45  1  0     0  0
 43 46  2  0     0  0
 44 47  1  0     0  0
 44 48  2  0     0  0
 45 49  2  0     0  0
  6 13  1  0     0  0
 11 14  1  0     0  0
 20 25  1  0     0  0
 28 32  1  0     0  0
 46 49  1  0     0  0
 47 50  1  0     0  0
  1  2  1  0     0  0
 50 51  1  0     0  0
  1  3  1  0     0  0
 50 52  1  0     0  0
  1  4  1  0     0  0
 50 53  1  0     0  0
  2  5  1  0     0  0
  1 54  1  6     0  0
  2  6  1  1     0  0
 29 55  2  0     0  0
 55 56  1  0     0  0
 56 57  2  0     0  0
 57 58  1  0     0  0
 58 59  2  0     0  0
 29 59  1  0     0  0
 39 60  1  0     0  0
 60 61  2  0     0  0
 60 62  1  0     0  0
 62 63  1  0     0  0
 63 64  1  0     0  0
 64 65  1  0     0  0
 64 66  2  0     0  0
M  END
