 
     RDKit          2D

 20 20  0  0  0  0  0  0  0  0999 V2000
   16.7674  -15.5798    0.0000 C   0  0  0  0  0  0  0  0  0  0  0  0
   18.0249  -16.2785    0.0000 C   0  0  0  0  0  0  0  0  0  0  0  0
   15.5797  -16.2785    0.0000 C   0  0  0  0  0  0  0  0  0  0  0  0
   16.7674  -14.3223    0.0000 C   0  0  0  0  0  0  0  0  0  0  0  0
   18.0249  -17.6757    0.0000 C   0  0  0  0  0  0  0  0  0  0  0  0
   19.2126  -15.5100    0.0000 O   0  0  0  0  0  0  0  0  0  0  0  0
   15.5797  -17.6757    0.0000 C   0  0  0  0  0  0  0  0  0  0  0  0
   18.0249  -13.6236    0.0000 O   0  0  0  0  0  0  0  0  0  0  0  0
   15.5797  -13.6236    0.0000 O   0  0  0  0  0  0  0  0  0  0  0  0
   16.7674  -18.3744    0.0000 C   0  0  0  0  0  0  0  0  0  0  0  0
   20.4702  -16.2086    0.0000 C   0  0  0  0  0  0  0  0  0  0  0  0
   21.6579  -15.5100    0.0000 C   0  0  0  0  0  0  0  0  0  0  0  0
   20.4702  -17.6757    0.0000 O   0  0  0  0  0  0  0  0  0  0  0  0
   19.2108  -14.3352    0.0000 C   0  0  0  0  0  0  0  0  0  0  0  0
   20.4050  -13.6723    0.0000 C   0  0  0  0  0  0  0  0  0  0  0  0
   20.4286  -12.2500    0.0000 N   0  0  0  0  0  0  0  0  0  0  0  0
   21.6612  -11.5654    0.0000 C   0  0  0  0  0  0  0  0  0  0  0  0
   22.8321  -12.2676    0.0000 C   0  0  0  0  0  0  0  0  0  0  0  0
   19.2363  -11.5350    0.0000 C   0  0  0  0  0  0  0  0  0  0  0  0
   18.0167  -12.2125    0.0000 C   0  0  0  0  0  0  0  0  0  0  0  0
  1  2  2  0
  1  3  1  0
  1  4  1  0
  2  5  1  0
  2  6  1  0
  3  7  2  0
  4  8  1  0
  4  9  2  0
  5 10  2  0
  6 11  1  0
 11 12  1  0
 11 13  2  0
  7 10  1  0
  8 14  1  0
 14 15  1  0
 15 16  1  0
 16 17  1  0
 17 18  1  0
 16 19  1  0
 19 20  1  0
M  END
