 
 
 
 39 41  0  0  1  0  0  0  0  0999 V2000
   11.7600  -11.8300    0.0000 C   0  0  0  0  0  0  0  0  0  0  0  0
   11.7600  -13.2300    0.0000 C   0  0  0  0  0  0  0  0  0  0  0  0
   12.9724  -13.9300    0.0000 C   0  0  0  0  0  0  0  0  0  0  0  0
   14.1849  -13.2300    0.0000 C   0  0  0  0  0  0  0  0  0  0  0  0
   14.1849  -11.8300    0.0000 C   0  0  0  0  0  0  0  0  0  0  0  0
   12.9724  -11.1300    0.0000 C   0  0  0  0  0  0  0  0  0  0  0  0
   10.5476  -13.9300    0.0000 N   0  0  0  0  0  0  0  0  0  0  0  0
    9.3521  -13.2396    0.0000 C   0  0  0  0  0  0  0  0  0  0  0  0
    8.1647  -13.9251    0.0000 O   0  0  0  0  0  0  0  0  0  0  0  0
    6.9735  -13.2371    0.0000 C   0  0  0  0  0  0  0  0  0  0  0  0
    5.7840  -13.9238    0.0000 C   0  0  0  0  0  0  0  0  0  0  0  0
    6.9735  -11.8303    0.0000 C   0  0  0  0  0  0  0  0  0  0  0  0
    9.3520  -11.8303    0.0000 O   0  0  0  0  0  0  0  0  0  0  0  0
   15.4160  -13.9410    0.0000 S   0  0  0  0  0  0  0  0  0  0  0  0
   16.6284  -14.6410    0.0000 N   0  0  0  0  0  0  0  0  0  0  0  0
   16.1160  -12.7286    0.0000 O   0  0  0  0  0  0  0  0  0  0  0  0
   14.7160  -15.1535    0.0000 O   0  0  0  0  0  0  0  0  0  0  0  0
   15.4160  -11.1190    0.0000 C   0  0  0  0  0  0  0  0  0  0  0  0
   16.7441  -11.5216    0.0000 S   0  0  0  0  0  0  0  0  0  0  0  0
   17.5397  -10.3820    0.0000 C   0  0  0  0  0  0  0  0  0  0  0  0
   16.7018   -9.2733    0.0000 N   0  0  0  0  0  0  0  0  0  0  0  0
   15.3883   -9.7276    0.0000 C   0  0  0  0  0  0  0  0  0  0  0  0
   18.9700  -10.3556    0.0000 C   0  0  0  0  0  0  0  0  0  0  0  0
   19.6943  -11.5581    0.0000 C   0  0  0  0  0  0  0  0  0  0  0  0
   21.0940  -11.5322    0.0000 C   0  0  0  0  0  0  0  0  0  0  0  0
   21.7715  -10.3070    0.0000 C   0  0  0  0  0  0  0  0  0  0  0  0
   21.0472   -9.1045    0.0000 C   0  0  0  0  0  0  0  0  0  0  0  0
   19.6474   -9.1304    0.0000 C   0  0  0  0  0  0  0  0  0  0  0  0
   23.1700  -10.2811    0.0000 N   0  0  0  0  0  0  0  0  0  0  0  0
   23.8963  -11.4869    0.0000 C   0  0  0  0  0  0  0  0  0  0  0  0
   25.2699  -11.4613    0.0000 O   0  0  0  0  0  0  0  0  0  0  0  0
   23.2159  -12.7178    0.0000 O   0  0  0  0  0  0  0  0  0  0  0  0
   26.0007  -12.6742    0.0000 C   0  0  0  0  0  0  0  0  0  0  0  0
   27.3698  -12.6484    0.0000 C   0  0  0  0  0  0  0  0  0  0  0  0
   25.3185  -13.9092    0.0000 C   0  0  0  0  0  0  0  0  0  0  0  0
   17.8692  -13.9245    0.0000 C   0  0  0  0  0  0  0  0  0  0  0  0
   19.0696  -14.6175    0.0000 C   0  0  0  0  0  0  0  0  0  0  0  0
   17.8691  -12.5301    0.0000 C   0  0  0  0  0  0  0  0  0  0  0  0
   19.0648  -13.2341    0.0000 C   0  0  0  0  0  0  0  0  0  0  0  0
  1  2  2  0     0  0
  2  3  1  0     0  0
  3  4  2  0     0  0
  4  5  1  0     0  0
  5  6  2  0     0  0
  1  6  1  0     0  0
  2  7  1  0     0  0
  7  8  1  0     0  0
  8  9  1  0     0  0
  9 10  1  0     0  0
 10 11  1  0     0  0
 10 12  1  0     0  0
  8 13  2  0     0  0
  4 14  1  0     0  0
 14 15  1  0     0  0
 14 16  2  0     0  0
 14 17  2  0     0  0
  5 18  1  0     0  0
 18 19  1  0     0  0
 19 20  1  0     0  0
 20 21  2  0     0  0
 21 22  1  0     0  0
 18 22  2  0     0  0
 23 20  1  6     0  0
 23 24  1  0     0  0
 24 25  1  0     0  0
 25 26  1  0     0  0
 26 27  1  0     0  0
 27 28  1  0     0  0
 23 28  1  0     0  0
 26 29  1  1     0  0
 29 30  1  0     0  0
 30 31  1  0     0  0
 30 32  2  0     0  0
 31 33  1  0     0  0
 33 34  1  0     0  0
 33 35  1  0     0  0
 15 36  1  0     0  0
 36 37  1  0     0  0
 36 38  1  0     0  0
 36 39  1  0     0  0
M  END
