 
 
 
 43 47  0  0  1  0  0  0  0  0999 V2000
   15.0732  -16.7476    0.0000 N   0  0  0  0  0  0  0  0  0  0  0  0
   15.0732  -18.1562    0.0000 C   0  0  0  0  0  0  0  0  0  0  0  0
   16.2931  -18.8605    0.0000 C   0  0  0  0  0  0  0  0  0  0  0  0
   17.5131  -18.1562    0.0000 C   0  0  0  0  0  0  0  0  0  0  0  0
   17.5131  -16.7476    0.0000 N   0  0  0  0  0  0  0  0  0  0  0  0
   16.2931  -16.0433    0.0000 C   0  0  0  0  0  0  0  0  0  0  0  0
   18.7517  -18.8716    0.0000 C   0  0  0  0  0  0  0  0  0  0  0  0
   19.9644  -18.1716    0.0000 N   0  0  0  0  0  0  0  0  0  0  0  0
   21.1540  -18.8586    0.0000 C   0  0  0  0  0  0  0  0  0  0  0  0
   22.3739  -18.1545    0.0000 C   0  0  0  0  0  0  0  0  0  0  0  0
   22.3741  -16.7459    0.0000 N   0  0  0  0  0  0  0  0  0  0  0  0
   21.1844  -16.0589    0.0000 C   0  0  0  0  0  0  0  0  0  0  0  0
   19.9645  -16.7630    0.0000 C   0  0  0  0  0  0  0  0  0  0  0  0
   23.3951  -15.8268    0.0000 C   0  0  0  0  0  0  0  0  0  0  0  0
   22.8365  -14.5717    0.0000 N   0  0  0  0  0  0  0  0  0  0  0  0
   21.4702  -14.7151    0.0000 C   0  0  0  0  0  0  0  0  0  0  0  0
   23.5401  -13.3532    0.0000 C   0  0  0  0  0  0  0  0  0  0  0  0
   24.9335  -13.3534    0.0000 C   0  0  0  0  0  0  0  0  0  0  0  0
   25.6323  -12.1438    0.0000 C   0  0  0  0  0  0  0  0  0  0  0  0
   27.0464  -12.1440    0.0000 O   0  0  0  0  0  0  0  0  0  0  0  0
   24.9408  -10.9455    0.0000 O   0  0  0  0  0  0  0  0  0  0  0  0
   24.9335  -14.7620    0.0000 C   0  0  0  0  0  0  0  0  0  0  0  0
   26.1535  -14.0577    0.0000 C   0  0  0  0  0  0  0  0  0  0  0  0
   16.2931  -14.6348    0.0000 C   0  0  0  0  0  0  0  0  0  0  0  0
   17.4179  -13.8174    0.0000 S   0  0  0  0  0  0  0  0  0  0  0  0
   16.9880  -12.4951    0.0000 C   0  0  0  0  0  0  0  0  0  0  0  0
   15.5976  -12.4952    0.0000 C   0  0  0  0  0  0  0  0  0  0  0  0
   15.1681  -13.8177    0.0000 N   0  0  0  0  0  0  0  0  0  0  0  0
   13.8533  -18.8605    0.0000 C   0  0  0  0  0  0  0  0  0  0  0  0
   12.6505  -18.1659    0.0000 C   0  0  0  0  0  0  0  0  0  0  0  0
   11.4305  -18.8701    0.0000 C   0  0  0  0  0  0  0  0  0  0  0  0
   11.4303  -20.2787    0.0000 C   0  0  0  0  0  0  0  0  0  0  0  0
   12.6332  -20.9734    0.0000 C   0  0  0  0  0  0  0  0  0  0  0  0
   13.8531  -20.2692    0.0000 C   0  0  0  0  0  0  0  0  0  0  0  0
   12.6504  -16.7479    0.0000 C   0  0  0  0  0  0  0  0  0  0  0  0
   10.1917  -18.1547    0.0000 F   0  0  0  0  0  0  0  0  0  0  0  0
   16.2931  -20.2690    0.0000 C   0  0  0  0  0  0  0  0  0  0  0  0
   15.0563  -20.9832    0.0000 O   0  0  0  0  0  0  0  0  0  0  0  0
   17.4960  -20.9636    0.0000 O   0  0  0  0  0  0  0  0  0  0  0  0
   18.6906  -20.2740    0.0000 C   0  0  0  0  0  0  0  0  0  0  0  0
   19.8893  -20.9662    0.0000 C   0  0  0  0  0  0  0  0  0  0  0  0
   19.9646  -15.3546    0.0000 H   0  0  0  0  0  0  0  0  0  0  0  0
   24.7487  -16.1146    0.0000 O   0  0  0  0  0  0  0  0  0  0  0  0
  1  2  1  0     0  0
  2  3  1  0     0  0
  3  4  2  0     0  0
  4  5  1  0     0  0
  5  6  2  0     0  0
  1  6  1  0     0  0
  4  7  1  0     0  0
  7  8  1  0     0  0
  8  9  1  0     0  0
  9 10  1  0     0  0
 10 11  1  0     0  0
 11 12  1  0     0  0
 12 13  1  0     0  0
  8 13  1  0     0  0
 11 14  1  0     0  0
 14 15  1  0     0  0
 15 16  1  0     0  0
 12 16  1  0     0  0
 15 17  1  0     0  0
 17 18  1  0     0  0
 18 19  1  0     0  0
 19 20  1  0     0  0
 19 21  2  0     0  0
 18 22  1  0     0  0
 18 23  1  0     0  0
  6 24  1  0     0  0
 24 25  1  0     0  0
 25 26  1  0     0  0
 26 27  2  0     0  0
 27 28  1  0     0  0
 24 28  2  0     0  0
  2 29  1  6     0  0
 29 30  2  0     0  0
 30 31  1  0     0  0
 31 32  2  0     0  0
 32 33  1  0     0  0
 33 34  2  0     0  0
 29 34  1  0     0  0
 30 35  1  0     0  0
 31 36  1  0     0  0
  3 37  1  0     0  0
 37 38  2  0     0  0
 37 39  1  0     0  0
 39 40  1  0     0  0
 40 41  1  0     0  0
 12 42  1  6     0  0
 14 43  2  0     0  0
M  END
