 
 
 
 27 29  0  0  1  0  0  0  0  0999 V2000
   17.0100  -15.0500    0.0000 C   0  0  0  0  0  0  0  0  0  0  0  0
   18.2224  -15.7500    0.0000 O   0  0  0  0  0  0  0  0  0  0  0  0
   15.7976  -15.7500    0.0000 O   0  0  0  0  0  0  0  0  0  0  0  0
   17.0100  -13.6500    0.0000 C   0  0  0  0  0  0  0  0  0  0  0  0
   17.9999  -12.6601    0.0000 C   0  0  0  0  0  0  0  0  0  0  0  0
   17.0100  -11.6701    0.0000 C   0  0  0  0  0  0  0  0  0  0  0  0
   16.0201  -12.6601    0.0000 N   0  0  0  0  0  0  0  0  0  0  0  0
   17.0100  -10.2900    0.0000 O   0  0  0  0  0  0  0  0  0  0  0  0
   14.6300  -12.6601    0.0000 C   0  0  0  0  0  0  0  0  0  0  0  0
   19.3900  -12.6601    0.0000 C   0  0  0  0  0  0  0  0  0  0  0  0
   13.9342  -11.4551    0.0000 O   0  0  0  0  0  0  0  0  0  0  0  0
   13.9258  -13.8800    0.0000 N   0  0  0  0  0  0  0  0  0  0  0  0
   12.5301  -13.8800    0.0000 C   0  0  0  0  0  0  0  0  0  0  0  0
   11.8387  -15.0774    0.0000 C   0  0  0  0  0  0  0  0  0  0  0  0
   11.8214  -12.6526    0.0000 C   0  0  0  0  0  0  0  0  0  0  0  0
   10.4303  -15.0774    0.0000 C   0  0  0  0  0  0  0  0  0  0  0  0
    9.7303  -16.2899    0.0000 C   0  0  0  0  0  0  0  0  0  0  0  0
   10.4303  -17.5023    0.0000 C   0  0  0  0  0  0  0  0  0  0  0  0
   11.8387  -17.5023    0.0000 C   0  0  0  0  0  0  0  0  0  0  0  0
   12.5387  -16.2898    0.0000 C   0  0  0  0  0  0  0  0  0  0  0  0
   20.0858  -11.4551    0.0000 C   0  0  0  0  0  0  0  0  0  0  0  0
   21.4898  -11.4552    0.0000 C   0  0  0  0  0  0  0  0  0  0  0  0
   22.1898  -10.2427    0.0000 C   0  0  0  0  0  0  0  0  0  0  0  0
   21.4898   -9.0303    0.0000 N   0  0  0  0  0  0  0  0  0  0  0  0
   20.0858   -9.0303    0.0000 C   0  0  0  0  0  0  0  0  0  0  0  0
   19.3858  -10.2427    0.0000 C   0  0  0  0  0  0  0  0  0  0  0  0
   23.5898  -10.2428    0.0000 N   0  0  0  0  0  0  0  0  0  0  0  0
  1  2  1  0     0  0
  1  3  2  0     0  0
  4  1  1  1     0  0
  4  5  1  0     0  0
  5  6  1  0     0  0
  6  7  1  0     0  0
  4  7  1  0     0  0
  6  8  2  0     0  0
  7  9  1  0     0  0
  5 10  1  6     0  0
  9 11  2  0     0  0
  9 12  1  0     0  0
 12 13  1  0     0  0
 13 14  1  0     0  0
 13 15  1  1     0  0
 14 16  1  0     0  0
 16 17  1  0     0  0
 17 18  1  0     0  0
 18 19  1  0     0  0
 19 20  1  0     0  0
 14 20  1  0     0  0
 10 21  1  0     0  0
 21 22  2  0     0  0
 22 23  1  0     0  0
 23 24  2  0     0  0
 24 25  1  0     0  0
 25 26  2  0     0  0
 21 26  1  0     0  0
 23 27  1  0     0  0
M  END
