 
 
 
 39 40  0  0  1  0  0  0  0  0999 V2000
   17.9200  -10.2900    0.0000 C   0  0  0  0  0  0  0  0  0  0  0  0
   17.9200  -11.6900    0.0000 N   0  0  0  0  0  0  0  0  0  0  0  0
   19.1100  -12.3900    0.0000 O   0  0  0  0  0  0  0  0  0  0  0  0
   20.3700  -11.6900    0.0000 C   0  0  0  0  0  0  0  0  0  0  0  0
   20.3700  -10.2900    0.0000 N   0  0  0  0  0  0  0  0  0  0  0  0
   19.1100   -9.5900    0.0000 C   0  0  0  0  0  0  0  0  0  0  0  0
   20.3700  -14.4900    0.0000 O   0  0  0  0  0  0  0  0  0  0  0  0
   21.5600  -13.7900    0.0000 N   0  0  0  0  0  0  0  0  0  0  0  0
   21.5600  -12.3900    0.0000 C   0  0  0  0  0  0  0  0  0  0  0  0
   16.7300  -12.3900    0.0000 C   0  0  0  0  0  0  0  0  0  0  0  0
   16.7300  -13.7900    0.0000 C   0  0  0  0  0  0  0  0  0  0  0  0
   17.9200  -14.4900    0.0000 O   0  0  0  0  0  0  0  0  0  0  0  0
   17.9200  -15.8900    0.0000 C   0  0  0  0  0  0  0  0  0  0  0  0
   19.1100  -16.5900    0.0000 C   0  0  0  0  0  0  0  0  0  0  0  0
   20.3700  -15.8900    0.0000 C   0  0  0  0  0  0  0  0  0  0  0  0
   21.5824  -16.5900    0.0000 N   0  0  0  0  0  0  0  0  0  0  0  0
   22.7949  -15.8900    0.0000 C   0  0  0  0  0  0  0  0  0  0  0  0
   22.7949  -14.4900    0.0000 C   0  0  0  0  0  0  0  0  0  0  0  0
   23.7844  -13.0900    0.0000 S   0  0  0  0  0  0  0  0  0  0  0  0
   22.8215  -11.8874    0.0000 C   0  0  0  0  0  0  0  0  0  0  0  0
   15.5147  -14.4851    0.0000 O   0  0  0  0  0  0  0  0  0  0  0  0
   16.7047   -9.5949    0.0000 O   0  0  0  0  0  0  0  0  0  0  0  0
   15.5147  -11.6949    0.0000 C   0  0  0  0  0  0  0  0  0  0  0  0
   14.3263  -12.3877    0.0000 C   0  0  0  0  0  0  0  0  0  0  0  0
   15.5089  -10.2903    0.0000 C   0  0  0  0  0  0  0  0  0  0  0  0
   18.4100   -8.3776    0.0000 C   0  0  0  0  0  0  0  0  0  0  0  0
   19.8100   -8.3776    0.0000 C   0  0  0  0  0  0  0  0  0  0  0  0
   16.7047  -16.5851    0.0000 C   0  0  0  0  0  0  0  0  0  0  0  0
   15.5163  -15.8923    0.0000 C   0  0  0  0  0  0  0  0  0  0  0  0
   14.3199  -16.5765    0.0000 C   0  0  0  0  0  0  0  0  0  0  0  0
   13.1387  -15.8881    0.0000 C   0  0  0  0  0  0  0  0  0  0  0  0
   11.9387  -16.5745    0.0000 S   0  0  0  0  0  0  0  0  0  0  0  0
   10.7592  -15.8871    0.0000 C   0  0  0  0  0  0  0  0  0  0  0  0
    9.5585  -16.5741    0.0000 C   0  0  0  0  0  0  0  0  0  0  0  0
   10.7649  -14.4901    0.0000 O   0  0  0  0  0  0  0  0  0  0  0  0
    8.3793  -15.8870    0.0000 C   0  0  0  0  0  0  0  0  0  0  0  0
    7.1785  -16.5741    0.0000 C   0  0  0  0  0  0  0  0  0  0  0  0
    8.3848  -14.4901    0.0000 C   0  0  0  0  0  0  0  0  0  0  0  0
    9.5525  -17.9895    0.0000 N   0  0  0  0  0  0  0  0  0  0  0  0
  1  2  1  0     0  0
  3  4  2  0     0  0
  4  5  1  0     0  0
  5  6  1  0     0  0
  1  6  1  0     0  0
  8  9  1  0     0  0
  4  9  1  0     0  0
  2 10  1  0     0  0
 10 11  1  0     0  0
 11 12  1  0     0  0
 12 13  1  0     0  0
 13 14  1  0     0  0
 14 15  1  0     0  0
 15  7  2  0     0  0
 15 16  1  0     0  0
 16 17  1  0     0  0
 17 18  1  0     0  0
 18  8  2  0     0  0
 18 19  1  0     0  0
 19 20  1  0     0  0
  9 20  2  0     0  0
 11 21  2  0     0  0
  1 22  2  0     0  0
 10 23  1  6     0  0
 23 24  1  0     0  0
 23 25  1  0     0  0
  6 26  1  6     0  0
  6 27  1  1     0  0
 13 28  1  1     0  0
 28 29  2  0     0  0
 29 30  1  0     0  0
 30 31  1  0     0  0
 31 32  1  0     0  0
 32 33  1  0     0  0
 33 34  1  0     0  0
 33 35  2  0     0  0
 34 36  1  0     0  0
 36 37  1  0     0  0
 36 38  1  0     0  0
 34 39  1  1     0  0
M  END
