 
 
 
 38 40  0  0  0  0  0  0  0  0999 V2000
   18.3237  -13.7777    0.0000 N   0  0  0  0  0  0  0  0  0  0  0  0
   18.7433  -15.1065    0.0000 N   0  0  0  0  0  0  0  0  0  0  0  0
   20.2120  -15.1065    0.0000 C   0  0  0  0  0  0  0  0  0  0  0  0
   20.6316  -13.7777    0.0000 C   0  0  0  0  0  0  0  0  0  0  0  0
   19.5126  -12.9385    0.0000 C   0  0  0  0  0  0  0  0  0  0  0  0
   21.7506  -13.0783    0.0000 C   0  0  0  0  0  0  0  0  0  0  0  0
   22.9395  -13.7777    0.0000 N   0  0  0  0  0  0  0  0  0  0  0  0
   21.7506  -11.7495    0.0000 O   0  0  0  0  0  0  0  0  0  0  0  0
   24.1285  -13.0783    0.0000 C   0  0  0  0  0  0  0  0  0  0  0  0
   25.3174  -13.7777    0.0000 C   0  0  0  0  0  0  0  0  0  0  0  0
   25.3174  -15.1765    0.0000 C   0  0  0  0  0  0  0  0  0  0  0  0
   26.5064  -15.8758    0.0000 C   0  0  0  0  0  0  0  0  0  0  0  0
   27.7652  -15.1765    0.0000 C   0  0  0  0  0  0  0  0  0  0  0  0
   27.7652  -13.7777    0.0000 C   0  0  0  0  0  0  0  0  0  0  0  0
   26.5763  -13.0783    0.0000 N   0  0  0  0  0  0  0  0  0  0  0  0
   24.1285  -15.8758    0.0000 F   0  0  0  0  0  0  0  0  0  0  0  0
   26.5064  -17.2746    0.0000 O   0  0  0  0  0  0  0  0  0  0  0  0
   25.3174  -17.9740    0.0000 C   0  0  0  0  0  0  0  0  0  0  0  0
   19.5126  -11.6096    0.0000 C   0  0  0  0  0  0  0  0  0  0  0  0
   18.3237  -10.8403    0.0000 O   0  0  0  0  0  0  0  0  0  0  0  0
   17.0648  -11.5397    0.0000 C   0  0  0  0  0  0  0  0  0  0  0  0
   17.9040  -16.2955    0.0000 C   0  0  0  0  0  0  0  0  0  0  0  0
   16.5053  -16.2955    0.0000 C   0  0  0  0  0  0  0  0  0  0  0  0
   15.8059  -15.0366    0.0000 C   0  0  0  0  0  0  0  0  0  0  0  0
   14.4071  -15.0366    0.0000 C   0  0  0  0  0  0  0  0  0  0  0  0
   13.7078  -16.2255    0.0000 C   0  0  0  0  0  0  0  0  0  0  0  0
   14.4071  -17.4844    0.0000 C   0  0  0  0  0  0  0  0  0  0  0  0
   15.8059  -17.4844    0.0000 C   0  0  0  0  0  0  0  0  0  0  0  0
   12.3090  -16.2255    0.0000 C   0  0  0  0  0  0  0  0  0  0  0  0
   11.6096  -17.4844    0.0000 N   0  0  0  0  0  0  0  0  0  0  0  0
   10.2109  -17.4844    0.0000 C   0  0  0  0  0  0  0  0  0  0  0  0
    9.5115  -18.6733    0.0000 C   0  0  0  0  0  0  0  0  0  0  0  0
   10.2109  -19.8623    0.0000 C   0  0  0  0  0  0  0  0  0  0  0  0
   11.6096  -19.8623    0.0000 C   0  0  0  0  0  0  0  0  0  0  0  0
   12.3090  -18.6733    0.0000 C   0  0  0  0  0  0  0  0  0  0  0  0
    9.5115  -16.2255    0.0000 O   0  0  0  0  0  0  0  0  0  0  0  0
   12.3090  -21.1212    0.0000 F   0  0  0  0  0  0  0  0  0  0  0  0
   20.9300  -21.0000    0.0000 Cl  0  0  0  0  0  0  0  0  0  0  0  0
  1  2  1  0     0  0
  3  4  2  0     0  0
  4  5  1  0     0  0
  1  5  2  0     0  0
  6  7  1  0     0  0
  6  4  1  0     0  0
  6  8  2  0     0  0
  7  9  1  0     0  0
  9 10  1  0     0  0
 10 11  2  0     0  0
 11 12  1  0     0  0
 12 13  2  0     0  0
 13 14  1  0     0  0
 14 15  2  0     0  0
 10 15  1  0     0  0
 11 16  1  0     0  0
 12 17  1  0     0  0
 17 18  1  0     0  0
  2  3  1  0     0  0
  5 19  1  0     0  0
 19 20  1  0     0  0
 20 21  1  0     0  0
  2 22  1  0     0  0
 22 23  1  0     0  0
 23 24  2  0     0  0
 24 25  1  0     0  0
 25 26  2  0     0  0
 26 27  1  0     0  0
 27 28  2  0     0  0
 23 28  1  0     0  0
 26 29  1  0     0  0
 29 30  1  0     0  0
 30 31  1  0     0  0
 31 32  1  0     0  0
 32 33  2  0     0  0
 33 34  1  0     0  0
 34 35  2  0     0  0
 30 35  1  0     0  0
 31 36  2  0     0  0
 34 37  1  0     0  0
M  END
