 
 
 
 35 36  0  0  0  0  0  0  0  0999 V2000
   10.8638  -17.7119    0.0000 N   0  0  0  0  0  0  0  0  0  0  0  0
   10.8638  -16.3283    0.0000 C   0  0  0  0  0  0  0  0  0  0  0  0
   12.0399  -15.5673    0.0000 C   0  0  0  0  0  0  0  0  0  0  0  0
   13.2851  -16.3283    0.0000 N   0  0  0  0  0  0  0  0  0  0  0  0
   13.2851  -17.7119    0.0000 C   0  0  0  0  0  0  0  0  0  0  0  0
   12.0399  -18.4037    0.0000 C   0  0  0  0  0  0  0  0  0  0  0  0
   14.4612  -15.5673    0.0000 S   0  0  0  0  0  0  0  0  0  0  0  0
   15.6373  -16.3283    0.0000 C   0  0  0  0  0  0  0  0  0  0  0  0
   16.8825  -15.5673    0.0000 C   0  0  0  0  0  0  0  0  0  0  0  0
   18.1278  -16.3283    0.0000 C   0  0  0  0  0  0  0  0  0  0  0  0
   18.1278  -17.7119    0.0000 C   0  0  0  0  0  0  0  0  0  0  0  0
   16.9517  -18.4037    0.0000 C   0  0  0  0  0  0  0  0  0  0  0  0
   15.6373  -17.7119    0.0000 C   0  0  0  0  0  0  0  0  0  0  0  0
   19.3039  -15.5673    0.0000 C   0  0  0  0  0  0  0  0  0  0  0  0
   20.4799  -16.3283    0.0000 N   0  0  0  0  0  0  0  0  0  0  0  0
   21.6560  -15.5673    0.0000 N   0  0  0  0  0  0  0  0  0  0  0  0
   22.8321  -16.3283    0.0000 C   0  0  0  0  0  0  0  0  0  0  0  0
   24.0082  -15.5673    0.0000 C   0  0  0  0  0  0  0  0  0  0  0  0
   22.8321  -17.7119    0.0000 C   0  0  0  0  0  0  0  0  0  0  0  0
   24.0082  -14.1837    0.0000 C   0  0  0  0  0  0  0  0  0  0  0  0
   25.2534  -13.4919    0.0000 C   0  0  0  0  0  0  0  0  0  0  0  0
   26.4295  -14.1837    0.0000 C   0  0  0  0  0  0  0  0  0  0  0  0
   26.4295  -15.5673    0.0000 C   0  0  0  0  0  0  0  0  0  0  0  0
   25.2534  -16.3283    0.0000 C   0  0  0  0  0  0  0  0  0  0  0  0
   27.6055  -16.3283    0.0000 Cl  0  0  0  0  0  0  0  0  0  0  0  0
   22.8321  -13.4919    0.0000 O   0  0  0  0  0  0  0  0  0  0  0  0
   19.3039  -14.1837    0.0000 O   0  0  0  0  0  0  0  0  0  0  0  0
   13.7694  -14.3912    0.0000 O   0  0  0  0  0  0  0  0  0  0  0  0
   15.1530  -14.3912    0.0000 O   0  0  0  0  0  0  0  0  0  0  0  0
    9.6878  -18.4037    0.0000 C   0  0  0  0  0  0  0  0  0  0  0  0
   31.6400  -16.2400    0.0000 S   0  0  0  0  0  0  0  0  0  0  0  0
   31.6400  -17.6400    0.0000 O   0  0  0  0  0  0  0  0  0  0  0  0
   31.6400  -14.8400    0.0000 O   0  0  0  0  0  0  0  0  0  0  0  0
   30.2400  -16.2400    0.0000 C   0  0  0  0  0  0  0  0  0  0  0  0
   33.0400  -16.2400    0.0000 O   0  0  0  0  0  0  0  0  0  0  0  0
  1  2  1  0     0  0
  2  3  1  0     0  0
  3  4  1  0     0  0
  4  5  1  0     0  0
  5  6  1  0     0  0
  1  6  1  0     0  0
  4  7  1  0     0  0
  7  8  1  0     0  0
  8  9  2  0     0  0
  9 10  1  0     0  0
 10 11  2  0     0  0
 11 12  1  0     0  0
 12 13  2  0     0  0
  8 13  1  0     0  0
 10 14  1  0     0  0
 14 15  1  0     0  0
 15 16  1  0     0  0
 16 17  2  0     0  0
 17 18  1  0     0  0
 17 19  1  0     0  0
 18 20  2  0     0  0
 20 21  1  0     0  0
 21 22  2  0     0  0
 22 23  1  0     0  0
 23 24  2  0     0  0
 18 24  1  0     0  0
 23 25  1  0     0  0
 20 26  1  0     0  0
 14 27  2  0     0  0
  7 28  2  0     0  0
  7 29  2  0     0  0
  1 30  1  0     0  0
 31 32  2  0     0  0
 31 33  2  0     0  0
 31 34  1  0     0  0
 31 35  1  0     0  0
M  END
