 
 
 
 29 31  0  0  0  0  0  0  0  0999 V2000
   13.8273  -17.0399    0.0000 C   0  0  0  0  0  0  0  0  0  0  0  0
   13.8273  -15.6432    0.0000 C   0  0  0  0  0  0  0  0  0  0  0  0
   15.0145  -14.9448    0.0000 C   0  0  0  0  0  0  0  0  0  0  0  0
   16.2715  -15.6432    0.0000 C   0  0  0  0  0  0  0  0  0  0  0  0
   16.2715  -17.0399    0.0000 C   0  0  0  0  0  0  0  0  0  0  0  0
   15.0145  -17.7382    0.0000 C   0  0  0  0  0  0  0  0  0  0  0  0
   12.6401  -17.7382    0.0000 O   0  0  0  0  0  0  0  0  0  0  0  0
   11.4529  -17.0399    0.0000 C   0  0  0  0  0  0  0  0  0  0  0  0
   12.6401  -14.9448    0.0000 O   0  0  0  0  0  0  0  0  0  0  0  0
   11.4529  -15.6432    0.0000 C   0  0  0  0  0  0  0  0  0  0  0  0
   15.0145  -13.5481    0.0000 O   0  0  0  0  0  0  0  0  0  0  0  0
   13.8273  -12.8498    0.0000 C   0  0  0  0  0  0  0  0  0  0  0  0
   17.4587  -17.7382    0.0000 C   0  0  0  0  0  0  0  0  0  0  0  0
   18.6459  -17.0399    0.0000 C   0  0  0  0  0  0  0  0  0  0  0  0
   17.4587  -19.1349    0.0000 O   0  0  0  0  0  0  0  0  0  0  0  0
   18.9951  -15.6432    0.0000 C   0  0  0  0  0  0  0  0  0  0  0  0
   20.3918  -15.5734    0.0000 N   0  0  0  0  0  0  0  0  0  0  0  0
   20.8807  -16.8304    0.0000 C   0  0  0  0  0  0  0  0  0  0  0  0
   19.9030  -17.7382    0.0000 N   0  0  0  0  0  0  0  0  0  0  0  0
   22.2774  -17.1097    0.0000 C   0  0  0  0  0  0  0  0  0  0  0  0
   23.3947  -16.2019    0.0000 C   0  0  0  0  0  0  0  0  0  0  0  0
   24.5121  -17.0399    0.0000 C   0  0  0  0  0  0  0  0  0  0  0  0
   24.2327  -18.3668    0.0000 N   0  0  0  0  0  0  0  0  0  0  0  0
   22.8360  -18.5064    0.0000 C   0  0  0  0  0  0  0  0  0  0  0  0
   23.3949  -14.8052    0.0000 C   0  0  0  0  0  0  0  0  0  0  0  0
   24.6517  -14.1767    0.0000 C   0  0  0  0  0  0  0  0  0  0  0  0
   25.7691  -14.9448    0.0000 C   0  0  0  0  0  0  0  0  0  0  0  0
   25.7691  -16.3415    0.0000 C   0  0  0  0  0  0  0  0  0  0  0  0
   20.7900  -12.6700    0.0000 Cl  0  0  0  0  0  0  0  0  0  0  0  0
  1  2  2  0     0  0
  2  3  1  0     0  0
  3  4  2  0     0  0
  4  5  1  0     0  0
  5  6  2  0     0  0
  1  6  1  0     0  0
  1  7  1  0     0  0
  7  8  1  0     0  0
  2  9  1  0     0  0
  9 10  1  0     0  0
  3 11  1  0     0  0
 11 12  1  0     0  0
  5 13  1  0     0  0
 13 14  1  0     0  0
 13 15  2  0     0  0
 14 16  2  0     0  0
 16 17  1  0     0  0
 17 18  2  0     0  0
 18 19  1  0     0  0
 14 19  1  0     0  0
 18 20  1  0     0  0
 20 21  1  0     0  0
 21 22  1  0     0  0
 22 23  1  0     0  0
 23 24  1  0     0  0
 20 24  2  0     0  0
 21 25  2  0     0  0
 25 26  1  0     0  0
 26 27  2  0     0  0
 27 28  1  0     0  0
 22 28  2  0     0  0
M  END
