 
 
 
 25 23  0  0  1  0  0  0  0  0999 V2000
   13.8110  -14.7213    0.0000 C   0  0  0  0  0  0  0  0  0  0  0  0
   13.8110  -16.1267    0.0000 C   0  0  0  0  0  0  0  0  0  0  0  0
   15.0281  -16.8294    0.0000 C   0  0  0  0  0  0  0  0  0  0  0  0
   16.2452  -16.1267    0.0000 C   0  0  0  0  0  0  0  0  0  0  0  0
   16.2452  -14.7213    0.0000 C   0  0  0  0  0  0  0  0  0  0  0  0
   15.0281  -14.0186    0.0000 O   0  0  0  0  0  0  0  0  0  0  0  0
   12.5939  -14.0186    0.0000 C   0  0  0  0  0  0  0  0  0  0  0  0
   15.0281  -18.2346    0.0000 O   0  0  0  0  0  0  0  0  0  0  0  0
   12.5939  -16.8294    0.0000 O   0  0  0  0  0  0  0  0  0  0  0  0
   17.4811  -16.8404    0.0000 O   0  0  0  0  0  0  0  0  0  0  0  0
   17.4811  -14.0075    0.0000 O   0  0  0  0  0  0  0  0  0  0  0  0
   18.6909  -14.7059    0.0000 C   0  0  0  0  0  0  0  0  0  0  0  0
   19.8778  -14.0205    0.0000 C   0  0  0  0  0  0  0  0  0  0  0  0
   21.0764  -14.7124    0.0000 C   0  0  0  0  0  0  0  0  0  0  0  0
   11.3938  -14.7116    0.0000 O   0  0  0  0  0  0  0  0  0  0  0  0
   22.2689  -14.0238    0.0000 C   0  0  0  0  0  0  0  0  0  0  0  0
   23.4646  -14.7141    0.0000 C   0  0  0  0  0  0  0  0  0  0  0  0
   24.6586  -14.0247    0.0000 C   0  0  0  0  0  0  0  0  0  0  0  0
   25.8535  -14.7146    0.0000 O   0  0  0  0  0  0  0  0  0  0  0  0
   23.4648  -16.1264    0.0000 O   0  0  0  0  0  0  0  0  0  0  0  0
   22.2690  -12.6134    0.0000 O   0  0  0  0  0  0  0  0  0  0  0  0
   21.0766  -16.1264    0.0000 O   0  0  0  0  0  0  0  0  0  0  0  0
   19.8778  -12.6134    0.0000 O   0  0  0  0  0  0  0  0  0  0  0  0
   24.4974  -19.7088    0.0000 O   0  0  0  0  0  0  0  0  0  0  0  0
   27.0200  -19.7400    0.0000 O   0  0  0  0  0  0  0  0  0  0  0  0
  1  2  1  0     0  0
  2  3  1  0     0  0
  3  4  1  0     0  0
  4  5  1  0     0  0
  5  6  1  0     0  0
  1  6  1  0     0  0
  1  7  1  1     0  0
  3  8  1  1     0  0
  2  9  1  6     0  0
  4 10  1  6     0  0
  5 11  1  6     0  0
 11 12  1  0     0  0
 12 13  1  0     0  0
 13 14  1  0     0  0
  7 15  1  0     0  0
 14 16  1  0     0  0
 16 17  1  0     0  0
 17 18  1  0     0  0
 18 19  1  0     0  0
 17 20  1  4     0  0
 16 21  1  6     0  0
 14 22  1  6     0  0
 13 23  1  1     0  0
M  END
