 
 
 
 28 31  0  0  1  0  0  0  0  0999 V2000
   15.6260  -13.8041    0.0000 C   0  0  0  0  0  0  0  0  0  0  0  0
   16.9574  -13.8041    0.0000 C   0  0  0  0  0  0  0  0  0  0  0  0
   17.4479  -12.4728    0.0000 C   0  0  0  0  0  0  0  0  0  0  0  0
   16.2567  -11.6319    0.0000 O   0  0  0  0  0  0  0  0  0  0  0  0
   15.1355  -12.4728    0.0000 C   0  0  0  0  0  0  0  0  0  0  0  0
   14.9253  -14.9954    0.0000 O   0  0  0  0  0  0  0  0  0  0  0  0
   17.6581  -14.9954    0.0000 O   0  0  0  0  0  0  0  0  0  0  0  0
   18.7092  -12.0523    0.0000 N   0  0  0  0  0  0  0  0  0  0  0  0
   13.8742  -12.0523    0.0000 C   0  0  0  0  0  0  0  0  0  0  0  0
   12.8231  -12.9633    0.0000 O   0  0  0  0  0  0  0  0  0  0  0  0
   19.7602  -12.9633    0.0000 C   0  0  0  0  0  0  0  0  0  0  0  0
   20.9515  -12.3326    0.0000 C   0  0  0  0  0  0  0  0  0  0  0  0
   20.6712  -10.9312    0.0000 N   0  0  0  0  0  0  0  0  0  0  0  0
   19.3398  -10.7911    0.0000 C   0  0  0  0  0  0  0  0  0  0  0  0
   19.7602  -14.3647    0.0000 N   0  0  0  0  0  0  0  0  0  0  0  0
   20.9515  -15.0654    0.0000 C   0  0  0  0  0  0  0  0  0  0  0  0
   22.2128  -14.4348    0.0000 N   0  0  0  0  0  0  0  0  0  0  0  0
   22.1427  -13.0334    0.0000 C   0  0  0  0  0  0  0  0  0  0  0  0
   23.4040  -12.2626    0.0000 N   0  0  0  0  0  0  0  0  0  0  0  0
   20.9515  -16.5369    0.0000 N   0  0  0  0  0  0  0  0  0  0  0  0
   19.8303  -17.3778    0.0000 N   0  0  0  0  0  0  0  0  0  0  0  0
   20.3208  -18.7092    0.0000 C   0  0  0  0  0  0  0  0  0  0  0  0
   21.7223  -18.7092    0.0000 C   0  0  0  0  0  0  0  0  0  0  0  0
   22.1427  -17.3077    0.0000 C   0  0  0  0  0  0  0  0  0  0  0  0
   21.7223  -21.1617    0.0000 O   0  0  0  0  0  0  0  0  0  0  0  0
   22.4230  -19.9705    0.0000 C   0  0  0  0  0  0  0  0  0  0  0  0
   23.8244  -19.9705    0.0000 N   0  0  0  0  0  0  0  0  0  0  0  0
   24.5251  -21.1617    0.0000 C   0  0  0  0  0  0  0  0  0  0  0  0
  1  2  1  0     0  0
  2  3  1  0     0  0
  3  4  1  0     0  0
  4  5  1  0     0  0
  1  5  1  0     0  0
  1  6  1  6     0  0
  2  7  1  6     0  0
  3  8  1  1     0  0
  5  9  1  1     0  0
  9 10  1  0     0  0
  8 11  1  0     0  0
 11 12  1  0     0  0
 12 13  1  0     0  0
 13 14  2  0     0  0
  8 14  1  0     0  0
 11 15  2  0     0  0
 15 16  1  0     0  0
 16 17  2  0     0  0
 17 18  1  0     0  0
 12 18  2  0     0  0
 18 19  1  0     0  0
 16 20  1  0     0  0
 20 21  1  0     0  0
 21 22  2  0     0  0
 22 23  1  0     0  0
 23 24  2  0     0  0
 20 24  1  0     0  0
 25 26  2  0     0  0
 23 26  1  0     0  0
 26 27  1  0     0  0
 27 28  1  0     0  0
M  END
