 
 
 
 43 46  0  0  0  0  0  0  0  0999 V2000
   17.4001  -13.1738    0.0000 C   0  0  0  0  0  0  0  0  0  0  0  0
   17.4001  -14.5124    0.0000 C   0  0  0  0  0  0  0  0  0  0  0  0
   18.5978  -15.2170    0.0000 C   0  0  0  0  0  0  0  0  0  0  0  0
   19.8659  -14.5124    0.0000 C   0  0  0  0  0  0  0  0  0  0  0  0
   19.8659  -13.1738    0.0000 C   0  0  0  0  0  0  0  0  0  0  0  0
   18.5978  -12.4693    0.0000 C   0  0  0  0  0  0  0  0  0  0  0  0
   18.5978  -16.6260    0.0000 S   0  0  0  0  0  0  0  0  0  0  0  0
   17.4001  -17.3305    0.0000 C   0  0  0  0  0  0  0  0  0  0  0  0
   16.2024  -16.6260    0.0000 C   0  0  0  0  0  0  0  0  0  0  0  0
   15.0047  -17.3305    0.0000 C   0  0  0  0  0  0  0  0  0  0  0  0
   15.0047  -18.7396    0.0000 C   0  0  0  0  0  0  0  0  0  0  0  0
   16.2024  -19.4441    0.0000 C   0  0  0  0  0  0  0  0  0  0  0  0
   17.4001  -18.7396    0.0000 C   0  0  0  0  0  0  0  0  0  0  0  0
   13.8070  -19.4441    0.0000 C   0  0  0  0  0  0  0  0  0  0  0  0
   18.5978  -19.4441    0.0000 C   0  0  0  0  0  0  0  0  0  0  0  0
   21.0636  -15.2170    0.0000 N   0  0  0  0  0  0  0  0  0  0  0  0
   21.0636  -16.6260    0.0000 C   0  0  0  0  0  0  0  0  0  0  0  0
   22.2613  -17.3305    0.0000 C   0  0  0  0  0  0  0  0  0  0  0  0
   23.5295  -16.6260    0.0000 N   0  0  0  0  0  0  0  0  0  0  0  0
   23.5295  -15.2170    0.0000 C   0  0  0  0  0  0  0  0  0  0  0  0
   22.2613  -14.5124    0.0000 C   0  0  0  0  0  0  0  0  0  0  0  0
   27.1600  -17.2900    0.0000 Br  0  0  0  0  0  0  0  0  0  0  0  0
   17.4001  -13.1738    0.0000 C   0  0  0  0  0  0  0  0  0  0  0  0
   17.4001  -14.5124    0.0000 C   0  0  0  0  0  0  0  0  0  0  0  0
   18.5978  -15.2170    0.0000 C   0  0  0  0  0  0  0  0  0  0  0  0
   19.8659  -14.5124    0.0000 C   0  0  0  0  0  0  0  0  0  0  0  0
   19.8659  -13.1738    0.0000 C   0  0  0  0  0  0  0  0  0  0  0  0
   18.5978  -12.4693    0.0000 C   0  0  0  0  0  0  0  0  0  0  0  0
   21.0636  -15.2170    0.0000 N   0  0  0  0  0  0  0  0  0  0  0  0
   21.0636  -16.6260    0.0000 C   0  0  0  0  0  0  0  0  0  0  0  0
   22.2613  -17.3305    0.0000 C   0  0  0  0  0  0  0  0  0  0  0  0
   23.5295  -16.6260    0.0000 N   0  0  0  0  0  0  0  0  0  0  0  0
   23.5295  -15.2170    0.0000 C   0  0  0  0  0  0  0  0  0  0  0  0
   22.2613  -14.5124    0.0000 C   0  0  0  0  0  0  0  0  0  0  0  0
   18.5978  -16.6260    0.0000 S   0  0  0  0  0  0  0  0  0  0  0  0
   17.4001  -17.3305    0.0000 C   0  0  0  0  0  0  0  0  0  0  0  0
   16.2024  -16.6260    0.0000 C   0  0  0  0  0  0  0  0  0  0  0  0
   15.0047  -17.3305    0.0000 C   0  0  0  0  0  0  0  0  0  0  0  0
   15.0047  -18.7396    0.0000 C   0  0  0  0  0  0  0  0  0  0  0  0
   16.2024  -19.4441    0.0000 C   0  0  0  0  0  0  0  0  0  0  0  0
   17.4001  -18.7396    0.0000 C   0  0  0  0  0  0  0  0  0  0  0  0
   18.5978  -19.4441    0.0000 C   0  0  0  0  0  0  0  0  0  0  0  0
   13.8070  -19.4441    0.0000 C   0  0  0  0  0  0  0  0  0  0  0  0
  1  2  2  0     0  0
  2  3  1  0     0  0
  3  4  2  0     0  0
  4  5  1  0     0  0
  5  6  2  0     0  0
  1  6  1  0     0  0
  3  7  1  0     0  0
  7  8  1  0     0  0
  8  9  2  0     0  0
  9 10  1  0     0  0
 10 11  2  0     0  0
 11 12  1  0     0  0
 12 13  2  0     0  0
  8 13  1  0     0  0
 11 14  1  0     0  0
 13 15  1  0     0  0
  4 16  1  0     0  0
 16 17  1  0     0  0
 17 18  1  0     0  0
 18 19  1  0     0  0
 19 20  1  0     0  0
 20 21  1  0     0  0
 16 21  1  0     0  0
 23 24  2  0     0  0
 24 25  1  0     0  0
 25 26  2  0     0  0
 26 27  1  0     0  0
 27 28  2  0     0  0
 23 28  1  0     0  0
 25 35  1  0     0  0
 35 36  1  0     0  0
 36 37  2  0     0  0
 37 38  1  0     0  0
 38 39  2  0     0  0
 39 40  1  0     0  0
 40 41  2  0     0  0
 36 41  1  0     0  0
 39 43  1  0     0  0
 41 42  1  0     0  0
 26 29  1  0     0  0
 29 30  1  0     0  0
 30 31  1  0     0  0
 31 32  1  0     0  0
 32 33  1  0     0  0
 33 34  1  0     0  0
 29 34  1  0     0  0
M  STY  1   1 MUL
M  SLB  1   1   1
M  SCN  1   1 HT 
M  SAL   1 15   1   2   3   4   5   6   7   8   9  10  11  12  13  14  15
M  SAL   1 15  16  17  18  19  20  21  23  24  25  26  27  28  29  30  31
M  SAL   1 12  32  33  34  35  36  37  38  39  40  41  42  43
M  SPA   1 15   1   2   3   4   5   6  16  17  18  19  20  21   7   8   9
M  SPA   1  6  10  11  12  13  15  14
M  SDI   1  4   11.2000  -20.6500   11.2000  -11.2000
M  SDI   1  4   24.9900  -11.2000   24.9900  -20.6500
M  SMT   1 2
M  END
