 
 
 
 37 41  0  0  0  0  0  0  0  0999 V2000
   24.7100  -12.7400    0.0000 C   0  0  0  0  0  0  0  0  0  0  0  0
   24.7100  -11.3400    0.0000 N   0  0  0  0  0  0  0  0  0  0  0  0
   25.9000  -10.6400    0.0000 C   0  0  0  0  0  0  0  0  0  0  0  0
   27.1600  -11.3400    0.0000 C   0  0  0  0  0  0  0  0  0  0  0  0
   27.1600  -12.7400    0.0000 C   0  0  0  0  0  0  0  0  0  0  0  0
   25.9000  -13.4400    0.0000 N   0  0  0  0  0  0  0  0  0  0  0  0
   28.3500  -10.6400    0.0000 F   0  0  0  0  0  0  0  0  0  0  0  0
   23.5200  -13.4400    0.0000 N   0  0  0  0  0  0  0  0  0  0  0  0
   23.5200  -14.8400    0.0000 C   0  0  0  0  0  0  0  0  0  0  0  0
   22.2600  -15.5400    0.0000 C   0  0  0  0  0  0  0  0  0  0  0  0
   21.0700  -14.8400    0.0000 N   0  0  0  0  0  0  0  0  0  0  0  0
   21.0700  -13.4400    0.0000 C   0  0  0  0  0  0  0  0  0  0  0  0
   22.2600  -12.7400    0.0000 C   0  0  0  0  0  0  0  0  0  0  0  0
   19.8800  -15.5400    0.0000 C   0  0  0  0  0  0  0  0  0  0  0  0
   19.8800  -16.9400    0.0000 C   0  0  0  0  0  0  0  0  0  0  0  0
   18.6200  -17.6400    0.0000 C   0  0  0  0  0  0  0  0  0  0  0  0
   17.4300  -16.9400    0.0000 C   0  0  0  0  0  0  0  0  0  0  0  0
   17.4300  -15.5400    0.0000 C   0  0  0  0  0  0  0  0  0  0  0  0
   18.6200  -14.8400    0.0000 C   0  0  0  0  0  0  0  0  0  0  0  0
   16.2400  -17.6400    0.0000 N   0  0  0  0  0  0  0  0  0  0  0  0
   15.0500  -16.9400    0.0000 C   0  0  0  0  0  0  0  0  0  0  0  0
   13.8600  -17.6400    0.0000 C   0  0  0  0  0  0  0  0  0  0  0  0
   15.0500  -15.5400    0.0000 O   0  0  0  0  0  0  0  0  0  0  0  0
   12.6700  -16.9400    0.0000 C   0  0  0  0  0  0  0  0  0  0  0  0
   13.8600  -19.0400    0.0000 O   0  0  0  0  0  0  0  0  0  0  0  0
   11.3400  -17.2900    0.0000 C   0  0  0  0  0  0  0  0  0  0  0  0
   10.5700  -16.1700    0.0000 C   0  0  0  0  0  0  0  0  0  0  0  0
   11.4100  -15.1200    0.0000 C   0  0  0  0  0  0  0  0  0  0  0  0
   12.6700  -15.5400    0.0000 N   0  0  0  0  0  0  0  0  0  0  0  0
   10.8500  -18.6200    0.0000 C   0  0  0  0  0  0  0  0  0  0  0  0
   11.7600  -19.7400    0.0000 C   0  0  0  0  0  0  0  0  0  0  0  0
   11.2700  -21.0700    0.0000 C   0  0  0  0  0  0  0  0  0  0  0  0
    9.9400  -21.2800    0.0000 C   0  0  0  0  0  0  0  0  0  0  0  0
    8.9600  -20.1600    0.0000 C   0  0  0  0  0  0  0  0  0  0  0  0
    9.4500  -18.8300    0.0000 C   0  0  0  0  0  0  0  0  0  0  0  0
   13.8600  -14.7700    0.0000 C   0  0  0  0  0  0  0  0  0  0  0  0
   11.0600  -13.7900    0.0000 C   0  0  0  0  0  0  0  0  0  0  0  0
  1  2  2  0     0  0
  2  3  1  0     0  0
  3  4  2  0     0  0
  4  5  1  0     0  0
  5  6  2  0     0  0
  1  6  1  0     0  0
  4  7  1  0     0  0
  1  8  1  0     0  0
  8  9  1  0     0  0
  9 10  1  0     0  0
 10 11  1  0     0  0
 11 12  1  0     0  0
 12 13  1  0     0  0
  8 13  1  0     0  0
 11 14  1  0     0  0
 14 15  2  0     0  0
 15 16  1  0     0  0
 16 17  2  0     0  0
 17 18  1  0     0  0
 18 19  2  0     0  0
 14 19  1  0     0  0
 17 20  1  0     0  0
 20 21  1  0     0  0
 21 22  1  0     0  0
 21 23  2  0     0  0
 22 24  1  0     0  0
 22 25  2  0     0  0
 24 26  2  0     0  0
 26 27  1  0     0  0
 27 28  2  0     0  0
 28 29  1  0     0  0
 24 29  1  0     0  0
 26 30  1  0     0  0
 30 31  2  0     0  0
 31 32  1  0     0  0
 32 33  2  0     0  0
 33 34  1  0     0  0
 34 35  2  0     0  0
 30 35  1  0     0  0
 29 36  1  0     0  0
 28 37  1  0     0  0
M  END
