 
 
 
 20 20  0  0  0  0  0  0  0  0999 V2000
   15.8900  -17.0800    0.0000 C   0  0  0  0  0  0  0  0  0  0  0  0
   15.8900  -18.4800    0.0000 C   0  0  0  0  0  0  0  0  0  0  0  0
   14.7000  -19.1800    0.0000 C   0  0  0  0  0  0  0  0  0  0  0  0
   13.4400  -18.4800    0.0000 C   0  0  0  0  0  0  0  0  0  0  0  0
   13.4400  -17.0800    0.0000 C   0  0  0  0  0  0  0  0  0  0  0  0
   14.7000  -16.3800    0.0000 C   0  0  0  0  0  0  0  0  0  0  0  0
   14.7000  -20.5800    0.0000 O   0  0  0  0  0  0  0  0  0  0  0  0
   14.7000  -14.9800    0.0000 O   0  0  0  0  0  0  0  0  0  0  0  0
   12.2500  -16.3800    0.0000 C   0  0  0  0  0  0  0  0  0  0  0  0
   12.2500  -19.1800    0.0000 C   0  0  0  0  0  0  0  0  0  0  0  0
   17.0800  -19.1800    0.0000 C   0  0  0  0  0  0  0  0  0  0  0  0
   17.0800  -16.3800    0.0000 C   0  0  0  0  0  0  0  0  0  0  0  0
   18.2700  -17.0800    0.0000 C   0  0  0  0  0  0  0  0  0  0  0  0
   19.4600  -16.3800    0.0000 C   0  0  0  0  0  0  0  0  0  0  0  0
   20.6500  -17.0800    0.0000 C   0  0  0  0  0  0  0  0  0  0  0  0
   21.8400  -16.3800    0.0000 C   0  0  0  0  0  0  0  0  0  0  0  0
   23.0300  -17.0800    0.0000 C   0  0  0  0  0  0  0  0  0  0  0  0
   24.2200  -16.3800    0.0000 C   0  0  0  0  0  0  0  0  0  0  0  0
   25.4100  -17.0800    0.0000 C   0  0  0  0  0  0  0  0  0  0  0  0
   26.6000  -16.3800    0.0000 C   0  0  0  0  0  0  0  0  0  0  0  0
  1  2  2  0     0  0
  2  3  1  0     0  0
  3  4  1  0     0  0
  4  5  2  0     0  0
  5  6  1  0     0  0
  1  6  1  0     0  0
  3  7  2  0     0  0
  6  8  2  0     0  0
  5  9  1  0     0  0
  4 10  1  0     0  0
  2 11  1  0     0  0
  1 12  1  0     0  0
 12 13  1  0     0  0
 13 14  1  0     0  0
 14 15  1  0     0  0
 15 16  1  0     0  0
 16 17  1  0     0  0
 17 18  1  0     0  0
 18 19  1  0     0  0
 19 20  1  0     0  0
M  END
