 
 
 
 28 31  0  0  0  0  0  0  0  0999 V2000
   10.5000  -16.5200    0.0000 C   0  0  0  0  0  0  0  0  0  0  0  0
   10.5000  -15.1200    0.0000 C   0  0  0  0  0  0  0  0  0  0  0  0
   11.6900  -14.4200    0.0000 C   0  0  0  0  0  0  0  0  0  0  0  0
   12.9500  -15.1200    0.0000 C   0  0  0  0  0  0  0  0  0  0  0  0
   12.9500  -16.5200    0.0000 C   0  0  0  0  0  0  0  0  0  0  0  0
   11.6900  -17.2200    0.0000 C   0  0  0  0  0  0  0  0  0  0  0  0
    9.3100  -17.2200    0.0000 O   0  0  0  0  0  0  0  0  0  0  0  0
    8.1200  -16.5200    0.0000 C   0  0  0  0  0  0  0  0  0  0  0  0
    9.3100  -14.4200    0.0000 O   0  0  0  0  0  0  0  0  0  0  0  0
    8.1200  -15.1200    0.0000 C   0  0  0  0  0  0  0  0  0  0  0  0
   11.6900  -13.0200    0.0000 O   0  0  0  0  0  0  0  0  0  0  0  0
   10.5000  -12.3200    0.0000 C   0  0  0  0  0  0  0  0  0  0  0  0
   14.1400  -17.2200    0.0000 C   0  0  0  0  0  0  0  0  0  0  0  0
   15.3300  -16.5200    0.0000 C   0  0  0  0  0  0  0  0  0  0  0  0
   14.1400  -18.6200    0.0000 O   0  0  0  0  0  0  0  0  0  0  0  0
   15.7163  -15.1581    0.0000 C   0  0  0  0  0  0  0  0  0  0  0  0
   17.0711  -15.0495    0.0000 N   0  0  0  0  0  0  0  0  0  0  0  0
   17.6141  -16.3188    0.0000 C   0  0  0  0  0  0  0  0  0  0  0  0
   16.5780  -17.2446    0.0000 N   0  0  0  0  0  0  0  0  0  0  0  0
   18.9850  -16.6357    0.0000 C   0  0  0  0  0  0  0  0  0  0  0  0
   20.0905  -15.7188    0.0000 C   0  0  0  0  0  0  0  0  0  0  0  0
   21.2602  -16.5039    0.0000 C   0  0  0  0  0  0  0  0  0  0  0  0
   20.9433  -17.8748    0.0000 N   0  0  0  0  0  0  0  0  0  0  0  0
   19.5191  -17.9745    0.0000 C   0  0  0  0  0  0  0  0  0  0  0  0
   20.0602  -14.3035    0.0000 C   0  0  0  0  0  0  0  0  0  0  0  0
   21.3385  -13.6910    0.0000 C   0  0  0  0  0  0  0  0  0  0  0  0
   22.5171  -14.4067    0.0000 C   0  0  0  0  0  0  0  0  0  0  0  0
   22.4779  -15.8132    0.0000 C   0  0  0  0  0  0  0  0  0  0  0  0
  1  2  2  0     0  0
  2  3  1  0     0  0
  3  4  2  0     0  0
  4  5  1  0     0  0
  5  6  2  0     0  0
  1  6  1  0     0  0
  1  7  1  0     0  0
  7  8  1  0     0  0
  2  9  1  0     0  0
  9 10  1  0     0  0
  3 11  1  0     0  0
 11 12  1  0     0  0
  5 13  1  0     0  0
 13 14  1  0     0  0
 13 15  2  0     0  0
 14 16  2  0     0  0
 16 17  1  0     0  0
 17 18  2  0     0  0
 18 19  1  0     0  0
 14 19  1  0     0  0
 18 20  1  0     0  0
 20 21  1  0     0  0
 21 22  1  0     0  0
 22 23  1  0     0  0
 23 24  1  0     0  0
 20 24  2  0     0  0
 21 25  2  0     0  0
 25 26  1  0     0  0
 26 27  2  0     0  0
 27 28  1  0     0  0
 22 28  2  0     0  0
M  END
