 
 
 
 32 34  0  0  0  0  0  0  0  0999 V2000
   24.0607  -16.5767    0.0000 C   0  0  0  0  0  0  0  0  0  0  0  0
   24.0607  -17.9056    0.0000 C   0  0  0  0  0  0  0  0  0  0  0  0
   22.8017  -15.8073    0.0000 C   0  0  0  0  0  0  0  0  0  0  0  0
   21.6127  -16.5767    0.0000 C   0  0  0  0  0  0  0  0  0  0  0  0
   21.6127  -17.9056    0.0000 C   0  0  0  0  0  0  0  0  0  0  0  0
   22.8017  -18.6051    0.0000 C   0  0  0  0  0  0  0  0  0  0  0  0
   20.4236  -15.8073    0.0000 O   0  0  0  0  0  0  0  0  0  0  0  0
   20.4236  -14.4084    0.0000 C   0  0  0  0  0  0  0  0  0  0  0  0
   21.6127  -13.7090    0.0000 C   0  0  0  0  0  0  0  0  0  0  0  0
   21.6127  -12.3101    0.0000 C   0  0  0  0  0  0  0  0  0  0  0  0
   20.4236  -11.6107    0.0000 N   0  0  0  0  0  0  0  0  0  0  0  0
   19.1646  -12.3101    0.0000 C   0  0  0  0  0  0  0  0  0  0  0  0
   19.1646  -13.7090    0.0000 C   0  0  0  0  0  0  0  0  0  0  0  0
   17.9756  -11.6107    0.0000 C   0  0  0  0  0  0  0  0  0  0  0  0
   16.7865  -12.3101    0.0000 C   0  0  0  0  0  0  0  0  0  0  0  0
   16.7865  -13.7090    0.0000 C   0  0  0  0  0  0  0  0  0  0  0  0
   17.9756  -14.4084    0.0000 C   0  0  0  0  0  0  0  0  0  0  0  0
   15.5975  -11.6107    0.0000 O   0  0  0  0  0  0  0  0  0  0  0  0
   14.4084  -12.3101    0.0000 C   0  0  0  0  0  0  0  0  0  0  0  0
   13.2194  -11.6107    0.0000 C   0  0  0  0  0  0  0  0  0  0  0  0
   15.5975  -14.4084    0.0000 O   0  0  0  0  0  0  0  0  0  0  0  0
   14.4084  -13.7090    0.0000 C   0  0  0  0  0  0  0  0  0  0  0  0
   12.0303  -12.3101    0.0000 N   0  0  0  0  0  0  0  0  0  0  0  0
   13.9188  -10.4216    0.0000 C   0  0  0  0  0  0  0  0  0  0  0  0
   12.5200  -10.4216    0.0000 C   0  0  0  0  0  0  0  0  0  0  0  0
   20.4236  -18.6051    0.0000 F   0  0  0  0  0  0  0  0  0  0  0  0
   23.0815  -20.0739    0.0000 C   0  0  0  0  0  0  0  0  0  0  0  0
   24.4804  -20.2138    0.0000 C   0  0  0  0  0  0  0  0  0  0  0  0
   25.1098  -18.8848    0.0000 N   0  0  0  0  0  0  0  0  0  0  0  0
   25.1798  -21.4728    0.0000 C   0  0  0  0  0  0  0  0  0  0  0  0
   13.5800  -21.3500    0.0000 Cl  0  0  0  0  0  0  0  0  0  0  0  0
   13.5800  -20.0200    0.0000 Cl  0  0  0  0  0  0  0  0  0  0  0  0
  1  2  2  0     0  0
  1  3  1  0     0  0
  3  4  2  0     0  0
  4  5  1  0     0  0
  5  6  2  0     0  0
  2  6  1  0     0  0
  4  7  1  0     0  0
  7  8  1  0     0  0
  8  9  2  0     0  0
  9 10  1  0     0  0
 10 11  2  0     0  0
 11 12  1  0     0  0
 12 13  2  0     0  0
  8 13  1  0     0  0
 12 14  1  0     0  0
 14 15  2  0     0  0
 15 16  1  0     0  0
 16 17  2  0     0  0
 13 17  1  0     0  0
 15 18  1  0     0  0
 18 19  1  0     0  0
 19 20  1  0     0  0
 16 21  1  0     0  0
 21 22  1  0     0  0
 20 23  1  0     0  0
 24 25  1  0     0  0
 25 20  1  0     0  0
 20 24  1  0     0  0
  5 26  1  0     0  0
  6 27  1  0     0  0
 27 28  2  0     0  0
 28 29  1  0     0  0
  2 29  1  0     0  0
 28 30  1  0     0  0
M  END
