 
 
 
 36 40  0  0  1  0  0  0  0  0999 V2000
   21.5019  -16.8926    0.0000 C   0  0  0  0  0  0  0  0  0  0  0  0
   21.5019  -15.4965    0.0000 C   0  0  0  0  0  0  0  0  0  0  0  0
   20.3152  -14.7985    0.0000 C   0  0  0  0  0  0  0  0  0  0  0  0
   19.0588  -15.4965    0.0000 C   0  0  0  0  0  0  0  0  0  0  0  0
   19.0588  -16.8926    0.0000 C   0  0  0  0  0  0  0  0  0  0  0  0
   20.3152  -17.5906    0.0000 C   0  0  0  0  0  0  0  0  0  0  0  0
   17.7326  -15.0777    0.0000 N   0  0  0  0  0  0  0  0  0  0  0  0
   16.9647  -16.1945    0.0000 C   0  0  0  0  0  0  0  0  0  0  0  0
   17.7326  -17.3114    0.0000 C   0  0  0  0  0  0  0  0  0  0  0  0
   20.3152  -13.4024    0.0000 N   0  0  0  0  0  0  0  0  0  0  0  0
   21.5019  -12.7044    0.0000 C   0  0  0  0  0  0  0  0  0  0  0  0
   22.6885  -13.4024    0.0000 C   0  0  0  0  0  0  0  0  0  0  0  0
   21.5019  -11.3084    0.0000 O   0  0  0  0  0  0  0  0  0  0  0  0
   23.8752  -12.7044    0.0000 N   0  0  0  0  0  0  0  0  0  0  0  0
   25.0618  -13.4024    0.0000 C   0  0  0  0  0  0  0  0  0  0  0  0
   26.3182  -12.7044    0.0000 C   0  0  0  0  0  0  0  0  0  0  0  0
   26.3182  -11.3084    0.0000 N   0  0  0  0  0  0  0  0  0  0  0  0
   25.1316  -10.6104    0.0000 C   0  0  0  0  0  0  0  0  0  0  0  0
   23.8752  -11.3084    0.0000 C   0  0  0  0  0  0  0  0  0  0  0  0
   27.5049  -10.6104    0.0000 C   0  0  0  0  0  0  0  0  0  0  0  0
   22.6885  -14.7985    0.0000 C   0  0  0  0  0  0  0  0  0  0  0  0
   17.3137  -18.6376    0.0000 C   0  0  0  0  0  0  0  0  0  0  0  0
   15.9177  -18.9168    0.0000 N   0  0  0  0  0  0  0  0  0  0  0  0
   15.4989  -20.2431    0.0000 C   0  0  0  0  0  0  0  0  0  0  0  0
   16.4761  -21.2901    0.0000 N   0  0  0  0  0  0  0  0  0  0  0  0
   17.8024  -21.0109    0.0000 C   0  0  0  0  0  0  0  0  0  0  0  0
   18.2910  -19.6847    0.0000 C   0  0  0  0  0  0  0  0  0  0  0  0
   14.1726  -20.5921    0.0000 N   0  0  0  0  0  0  0  0  0  0  0  0
   13.2652  -19.5450    0.0000 C   0  0  0  0  0  0  0  0  0  0  0  0
   13.5444  -18.1490    0.0000 C   0  0  0  0  0  0  0  0  0  0  0  0
   12.2880  -17.4510    0.0000 N   0  0  0  0  0  0  0  0  0  0  0  0
   11.2409  -18.4282    0.0000 N   0  0  0  0  0  0  0  0  0  0  0  0
   11.7994  -19.6847    0.0000 C   0  0  0  0  0  0  0  0  0  0  0  0
   11.1013  -20.9411    0.0000 O   0  0  0  0  0  0  0  0  0  0  0  0
    9.7053  -20.9411    0.0000 C   0  0  0  0  0  0  0  0  0  0  0  0
   12.1484  -16.0549    0.0000 C   0  0  0  0  0  0  0  0  0  0  0  0
  1  2  2  0     0  0
  2  3  1  0     0  0
  3  4  2  0     0  0
  4  5  1  0     0  0
  5  6  2  0     0  0
  1  6  1  0     0  0
  4  7  1  0     0  0
  7  8  1  0     0  0
  8  9  2  0     0  0
  5  9  1  0     0  0
  3 10  1  0     0  0
 10 11  1  0     0  0
 11 12  1  0     0  0
 11 13  2  0     0  0
 12 14  1  0     0  0
 14 15  1  0     0  0
 15 16  1  0     0  0
 16 17  1  0     0  0
 17 18  1  0     0  0
 18 19  1  0     0  0
 14 19  1  0     0  0
 17 20  1  0     0  0
 12 21  1  6     0  0
  9 22  1  0     0  0
 22 23  2  0     0  0
 23 24  1  0     0  0
 24 25  2  0     0  0
 25 26  1  0     0  0
 26 27  2  0     0  0
 22 27  1  0     0  0
 24 28  1  0     0  0
 28 29  1  0     0  0
 29 30  2  0     0  0
 30 31  1  0     0  0
 31 32  1  0     0  0
 32 33  2  0     0  0
 29 33  1  0     0  0
 33 34  1  0     0  0
 34 35  1  0     0  0
 31 36  1  0     0  0
M  END
