 
 
 
 34 36  0  0  0  0  0  0  0  0999 V2000
    8.9075  -14.5884    0.0000 C   0  0  0  0  0  0  0  0  0  0  0  0
    8.9075  -15.9911    0.0000 C   0  0  0  0  0  0  0  0  0  0  0  0
   10.0998  -16.6924    0.0000 C   0  0  0  0  0  0  0  0  0  0  0  0
   11.3622  -15.9911    0.0000 N   0  0  0  0  0  0  0  0  0  0  0  0
   11.3622  -14.5884    0.0000 C   0  0  0  0  0  0  0  0  0  0  0  0
   10.0998  -13.8870    0.0000 N   0  0  0  0  0  0  0  0  0  0  0  0
   12.5545  -13.8870    0.0000 O   0  0  0  0  0  0  0  0  0  0  0  0
   13.8170  -14.5884    0.0000 C   0  0  0  0  0  0  0  0  0  0  0  0
   13.8170  -15.9911    0.0000 C   0  0  0  0  0  0  0  0  0  0  0  0
   15.0093  -16.6924    0.0000 C   0  0  0  0  0  0  0  0  0  0  0  0
   16.2016  -15.9911    0.0000 C   0  0  0  0  0  0  0  0  0  0  0  0
   16.2016  -14.5884    0.0000 C   0  0  0  0  0  0  0  0  0  0  0  0
   15.0093  -13.8870    0.0000 C   0  0  0  0  0  0  0  0  0  0  0  0
   17.4641  -16.6924    0.0000 C   0  0  0  0  0  0  0  0  0  0  0  0
   18.6564  -15.9911    0.0000 C   0  0  0  0  0  0  0  0  0  0  0  0
   18.6564  -14.5884    0.0000 C   0  0  0  0  0  0  0  0  0  0  0  0
   17.4641  -13.8870    0.0000 O   0  0  0  0  0  0  0  0  0  0  0  0
   19.8487  -16.6924    0.0000 C   0  0  0  0  0  0  0  0  0  0  0  0
   21.1112  -15.9911    0.0000 C   0  0  0  0  0  0  0  0  0  0  0  0
   19.8487  -13.8870    0.0000 O   0  0  0  0  0  0  0  0  0  0  0  0
   17.4641  -18.0952    0.0000 C   0  0  0  0  0  0  0  0  0  0  0  0
   22.3035  -16.6924    0.0000 C   0  0  0  0  0  0  0  0  0  0  0  0
   23.4958  -15.9911    0.0000 C   0  0  0  0  0  0  0  0  0  0  0  0
   23.4958  -14.5884    0.0000 N   0  0  0  0  0  0  0  0  0  0  0  0
   22.3035  -13.8870    0.0000 C   0  0  0  0  0  0  0  0  0  0  0  0
   21.1112  -14.5884    0.0000 C   0  0  0  0  0  0  0  0  0  0  0  0
   24.6881  -16.6924    0.0000 N   0  5  0  0  0  0  0  0  0  0  0  0
   25.9506  -15.9911    0.0000 S   0  0  0  0  0  0  0  0  0  0  0  0
   27.1429  -16.6924    0.0000 N   0  0  0  0  0  0  0  0  0  0  0  0
   28.3352  -15.9911    0.0000 C   0  0  0  0  0  0  0  0  0  0  0  0
   22.3035  -18.0952    0.0000 F   0  0  0  0  0  0  0  0  0  0  0  0
   25.2492  -14.7988    0.0000 O   0  0  0  0  0  0  0  0  0  0  0  0
   26.6519  -14.7988    0.0000 O   0  0  0  0  0  0  0  0  0  0  0  0
   24.7800  -18.6200    0.0000 K   0  3  0  0  0  0  0  0  0  0  0  0
  1  2  2  0     0  0
  2  3  1  0     0  0
  3  4  2  0     0  0
  4  5  1  0     0  0
  5  6  2  0     0  0
  1  6  1  0     0  0
  5  7  1  0     0  0
  7  8  1  0     0  0
  8  9  2  0     0  0
  9 10  1  0     0  0
 10 11  2  0     0  0
 11 12  1  0     0  0
 12 13  2  0     0  0
  8 13  1  0     0  0
 11 14  1  0     0  0
 14 15  2  0     0  0
 15 16  1  0     0  0
 16 17  1  0     0  0
 12 17  1  0     0  0
 15 18  1  0     0  0
 18 19  1  0     0  0
 16 20  2  0     0  0
 14 21  1  0     0  0
 19 22  2  0     0  0
 22 23  1  0     0  0
 23 24  2  0     0  0
 24 25  1  0     0  0
 25 26  2  0     0  0
 19 26  1  0     0  0
 23 27  1  0     0  0
 27 28  1  0     0  0
 28 29  1  0     0  0
 29 30  1  0     0  0
 22 31  1  0     0  0
 28 32  2  0     0  0
 28 33  2  0     0  0
M  CHG  2  27  -1  34   1
M  END
