 
 
 
 41 42  0  0  1  0  0  0  0  0999 V2000
   13.5117  -15.1219    0.0000 C   0  0  0  0  0  0  0  0  0  0  0  0
   13.5117  -13.7217    0.0000 C   0  0  0  0  0  0  0  0  0  0  0  0
   12.1815  -13.3016    0.0000 C   0  0  0  0  0  0  0  0  0  0  0  0
   11.3414  -14.4218    0.0000 C   0  0  0  0  0  0  0  0  0  0  0  0
   12.1815  -15.5419    0.0000 C   0  0  0  0  0  0  0  0  0  0  0  0
   11.7614  -11.9715    0.0000 O   0  0  0  0  0  0  0  0  0  0  0  0
   11.7614  -16.8721    0.0000 O   0  0  0  0  0  0  0  0  0  0  0  0
   14.7718  -13.0216    0.0000 C   0  0  0  0  0  0  0  0  0  0  0  0
   15.9620  -13.7217    0.0000 C   0  0  0  0  0  0  0  0  0  0  0  0
   14.7718  -15.8219    0.0000 C   0  0  0  0  0  0  0  0  0  0  0  0
   15.9620  -15.1219    0.0000 C   0  0  0  0  0  0  0  0  0  0  0  0
   17.1521  -15.8219    0.0000 C   0  0  0  0  0  0  0  0  0  0  0  0
   18.4123  -15.1219    0.0000 C   0  0  0  0  0  0  0  0  0  0  0  0
   19.6024  -15.8219    0.0000 C   0  0  0  0  0  0  0  0  0  0  0  0
   17.3621  -13.7217    0.0000 C   0  0  0  0  0  0  0  0  0  0  0  0
   18.6223  -13.0216    0.0000 C   0  0  0  0  0  0  0  0  0  0  0  0
   19.8124  -13.7217    0.0000 C   0  0  0  0  0  0  0  0  0  0  0  0
   21.0026  -13.0216    0.0000 C   0  0  0  0  0  0  0  0  0  0  0  0
   22.2627  -13.7217    0.0000 C   0  0  0  0  0  0  0  0  0  0  0  0
   23.4529  -13.0216    0.0000 N   0  0  0  0  0  0  0  0  0  0  0  0
   24.6430  -13.7217    0.0000 C   0  0  0  0  0  0  0  0  0  0  0  0
   17.1521  -17.2221    0.0000 O   0  0  0  0  0  0  0  0  0  0  0  0
   19.6024  -17.2221    0.0000 C   0  0  0  0  0  0  0  0  0  0  0  0
   18.4123  -17.9222    0.0000 C   0  0  0  0  0  0  0  0  0  0  0  0
   18.4123  -19.3224    0.0000 C   0  0  0  0  0  0  0  0  0  0  0  0
   19.6024  -20.0225    0.0000 C   0  0  0  0  0  0  0  0  0  0  0  0
   20.7925  -19.3224    0.0000 C   0  0  0  0  0  0  0  0  0  0  0  0
   20.7925  -17.9222    0.0000 C   0  0  0  0  0  0  0  0  0  0  0  0
   22.2627  -15.1219    0.0000 O   0  0  0  0  0  0  0  0  0  0  0  0
   25.9032  -13.0216    0.0000 C   0  0  0  0  0  0  0  0  0  0  0  0
   15.9390  -17.9225    0.0000 C   0  0  0  0  0  0  0  0  0  0  0  0
   14.7414  -17.2309    0.0000 O   0  0  0  0  0  0  0  0  0  0  0  0
   15.9390  -19.3198    0.0000 C   0  0  0  0  0  0  0  0  0  0  0  0
   14.7423  -20.0108    0.0000 C   0  0  0  0  0  0  0  0  0  0  0  0
   14.7422  -21.4197    0.0000 C   0  0  0  0  0  0  0  0  0  0  0  0
   13.5506  -22.1078    0.0000 C   0  0  0  0  0  0  0  0  0  0  0  0
   13.5506  -23.5078    0.0000 C   0  0  0  0  0  0  0  0  0  0  0  0
   12.3553  -24.1983    0.0000 O   0  0  0  0  0  0  0  0  0  0  0  0
   11.1781  -23.5191    0.0000 N   0  3  0  0  0  0  0  0  0  0  0  0
    9.8420  -24.3503    0.0000 O   0  5  0  0  0  0  0  0  0  0  0  0
   11.1776  -22.1202    0.0000 O   0  0  0  0  0  0  0  0  0  0  0  0
  1  2  1  0     0  0
  2  3  1  0     0  0
  3  4  1  0     0  0
  4  5  1  0     0  0
  1  5  1  0     0  0
  3  6  1  6     0  0
  5  7  1  6     0  0
  2  8  1  6     0  0
  8  9  1  0     0  0
  1 10  1  1     0  0
 10 11  2  0     0  0
 11 12  1  0     0  0
 12 13  1  0     0  0
 13 14  1  0     0  0
  9 15  2  0     0  0
 15 16  1  0     0  0
 16 17  1  0     0  0
 17 18  1  0     0  0
 18 19  1  0     0  0
 19 20  1  0     0  0
 20 21  1  0     0  0
 12 22  1  6     0  0
 14 23  1  0     0  0
 23 24  2  0     0  0
 24 25  1  0     0  0
 25 26  2  0     0  0
 26 27  1  0     0  0
 27 28  2  0     0  0
 23 28  1  0     0  0
 19 29  2  0     0  0
 21 30  1  0     0  0
 22 31  1  0     0  0
 31 32  2  0     0  0
 31 33  1  0     0  0
 33 34  1  0     0  0
 34 35  1  0     0  0
 35 36  1  0     0  0
 36 37  1  0     0  0
 37 38  1  0     0  0
 38 39  1  0     0  0
 39 40  1  0     0  0
 39 41  2  0     0  0
M  CHG  2  39   1  40  -1
M  END
