 
 
 
 12 12  0  0  0  0  0  0  0  0999 V2000
   17.9900  -14.5600    0.0000 C   0  0  0  0  0  0  0  0  0  0  0  0
   17.9900  -15.9600    0.0000 C   0  0  0  0  0  0  0  0  0  0  0  0
   16.8000  -16.6600    0.0000 C   0  0  0  0  0  0  0  0  0  0  0  0
   15.6100  -15.9600    0.0000 C   0  0  0  0  0  0  0  0  0  0  0  0
   15.6100  -14.5600    0.0000 C   0  0  0  0  0  0  0  0  0  0  0  0
   16.8000  -13.8600    0.0000 C   0  0  0  0  0  0  0  0  0  0  0  0
   14.3500  -16.6600    0.0000 F  -1  0  0  0  0  0  0  0  0  0  0  0
   19.2500  -16.6600    0.0000 C   0  0  0  0  0  0  0  0  0  0  0  0
   20.4400  -15.9600    0.0000 N   0  0  0  0  0  0  0  0  0  0  0  0
   21.6300  -16.6600    0.0000 C   0  0  0  0  0  0  0  0  0  0  0  0
   22.8900  -15.9600    0.0000 N   0  0  0  0  0  0  0  0  0  0  0  0
   21.6300  -18.0600    0.0000 N   0  0  0  0  0  0  0  0  0  0  0  0
  6  1  1  0     0  0
  4  7  1  0     0  0
  1  2  2  0     0  0
  2  8  1  0     0  0
  2  3  1  0     0  0
  8  9  1  0     0  0
  3  4  2  0     0  0
  9 10  1  0     0  0
  4  5  1  0     0  0
 10 11  1  0     0  0
  5  6  2  0     0  0
 10 12  2  0     0  0
M  ISO  1   7  18
M  END
