 
 
 
 41 45  0  0  1  0  0  0  0  0999 V2000
   20.8035  -15.5501    0.0000 C   0  0  0  0  0  0  0  0  0  0  0  0
   20.8035  -16.9510    0.0000 C   0  0  0  0  0  0  0  0  0  0  0  0
   21.9943  -17.6514    0.0000 C   0  0  0  0  0  0  0  0  0  0  0  0
   23.1850  -16.9510    0.0000 N   0  0  0  0  0  0  0  0  0  0  0  0
   23.1850  -15.5501    0.0000 C   0  0  0  0  0  0  0  0  0  0  0  0
   21.9943  -14.7796    0.0000 C   0  0  0  0  0  0  0  0  0  0  0  0
   24.2357  -14.5694    0.0000 N   0  0  0  0  0  0  0  0  0  0  0  0
   23.6754  -13.3086    0.0000 C   0  0  0  0  0  0  0  0  0  0  0  0
   22.2744  -13.4487    0.0000 O   0  0  0  0  0  0  0  0  0  0  0  0
   24.3758  -12.0478    0.0000 N   0  0  0  0  0  0  0  0  0  0  0  0
   25.7767  -12.0478    0.0000 C   0  0  0  0  0  0  0  0  0  0  0  0
   26.4772  -10.8570    0.0000 C   0  0  0  0  0  0  0  0  0  0  0  0
   25.7767   -9.6663    0.0000 O   0  0  0  0  0  0  0  0  0  0  0  0
   24.3758   -9.6663    0.0000 C   0  0  0  0  0  0  0  0  0  0  0  0
   23.6754  -10.8570    0.0000 C   0  0  0  0  0  0  0  0  0  0  0  0
   21.9943  -19.0524    0.0000 N   0  0  0  0  0  0  0  0  0  0  0  0
   20.8735  -19.8929    0.0000 C   0  0  0  0  0  0  0  0  0  0  0  0
   21.2938  -21.2238    0.0000 C   0  0  0  0  0  0  0  0  0  0  0  0
   22.6947  -21.2238    0.0000 C   0  0  0  0  0  0  0  0  0  0  0  0
   23.1150  -19.8929    0.0000 C   0  0  0  0  0  0  0  0  0  0  0  0
   19.5427  -17.6514    0.0000 N   0  0  0  0  0  0  0  0  0  0  0  0
   18.3519  -16.9510    0.0000 C   0  0  0  0  0  0  0  0  0  0  0  0
   17.1611  -17.6514    0.0000 C   0  0  0  0  0  0  0  0  0  0  0  0
   18.3519  -15.5501    0.0000 O   0  0  0  0  0  0  0  0  0  0  0  0
   15.8303  -17.2312    0.0000 N   0  0  0  0  0  0  0  0  0  0  0  0
   15.0598  -18.3519    0.0000 C   0  0  0  0  0  0  0  0  0  0  0  0
   15.9003  -19.4726    0.0000 O   0  0  0  0  0  0  0  0  0  0  0  0
   17.2312  -18.9823    0.0000 C   0  0  0  0  0  0  0  0  0  0  0  0
   13.6589  -18.4219    0.0000 C   0  0  0  0  0  0  0  0  0  0  0  0
   12.9584  -17.1611    0.0000 C   0  0  0  0  0  0  0  0  0  0  0  0
   11.5575  -17.2312    0.0000 C   0  0  0  0  0  0  0  0  0  0  0  0
   10.8570  -18.4219    0.0000 N   0  0  0  0  0  0  0  0  0  0  0  0
   11.5575  -19.6828    0.0000 C   0  0  0  0  0  0  0  0  0  0  0  0
   13.0284  -19.6127    0.0000 C   0  0  0  0  0  0  0  0  0  0  0  0
   10.8570  -15.9704    0.0000 C   0  0  0  0  0  0  0  0  0  0  0  0
   23.5353  -22.3445    0.0000 O   0  0  0  0  0  0  0  0  0  0  0  0
   13.4400  -11.0600    0.0000 S   0  0  0  0  0  0  0  0  0  0  0  0
   13.4400   -9.6600    0.0000 O   0  0  0  0  0  0  0  0  0  0  0  0
   13.4400  -12.4600    0.0000 O   0  0  0  0  0  0  0  0  0  0  0  0
   12.0400  -11.0600    0.0000 C   0  0  0  0  0  0  0  0  0  0  0  0
   14.8400  -11.0600    0.0000 O   0  0  0  0  0  0  0  0  0  0  0  0
  1  2  2  0     0  0
  2  3  1  0     0  0
  3  4  2  0     0  0
  4  5  1  0     0  0
  5  6  2  0     0  0
  1  6  1  0     0  0
  5  7  1  0     0  0
  7  8  2  0     0  0
  8  9  1  0     0  0
  6  9  1  0     0  0
  8 10  1  0     0  0
 10 11  1  0     0  0
 11 12  1  0     0  0
 12 13  1  0     0  0
 13 14  1  0     0  0
 14 15  1  0     0  0
 10 15  1  0     0  0
  3 16  1  0     0  0
 16 17  1  0     0  0
 17 18  1  0     0  0
 18 19  1  0     0  0
 19 20  1  0     0  0
 16 20  1  0     0  0
  2 21  1  0     0  0
 21 22  1  0     0  0
 22 23  1  0     0  0
 22 24  2  0     0  0
 23 25  1  0     0  0
 25 26  2  0     0  0
 26 27  1  0     0  0
 27 28  1  0     0  0
 23 28  2  0     0  0
 26 29  1  0     0  0
 29 30  2  0     0  0
 30 31  1  0     0  0
 31 32  2  0     0  0
 32 33  1  0     0  0
 33 34  2  0     0  0
 29 34  1  0     0  0
 31 35  1  0     0  0
 19 36  1  6     0  0
 37 38  2  0     0  0
 37 39  2  0     0  0
 37 40  1  0     0  0
 37 41  1  0     0  0
M  END
