 
 
 
 49 50  0  0  1  0  0  0  0  0999 V2000
   21.0560  -13.0813    0.0000 C   0  0  0  0  0  0  0  0  0  0  0  0
   21.0560  -14.4804    0.0000 N   0  0  0  0  0  0  0  0  0  0  0  0
   22.2452  -15.1799    0.0000 O   0  0  0  0  0  0  0  0  0  0  0  0
   23.5044  -14.4804    0.0000 C   0  0  0  0  0  0  0  0  0  0  0  0
   23.5044  -13.0813    0.0000 N   0  0  0  0  0  0  0  0  0  0  0  0
   22.2452  -12.3818    0.0000 C   0  0  0  0  0  0  0  0  0  0  0  0
   23.5044  -17.2785    0.0000 O   0  0  0  0  0  0  0  0  0  0  0  0
   24.6936  -16.5790    0.0000 N   0  0  0  0  0  0  0  0  0  0  0  0
   24.6936  -15.1799    0.0000 C   0  0  0  0  0  0  0  0  0  0  0  0
   19.8668  -15.1799    0.0000 C   0  0  0  0  0  0  0  0  0  0  0  0
   19.8668  -16.5790    0.0000 C   0  0  0  0  0  0  0  0  0  0  0  0
   21.0560  -17.2785    0.0000 O   0  0  0  0  0  0  0  0  0  0  0  0
   21.0560  -18.6776    0.0000 C   0  0  0  0  0  0  0  0  0  0  0  0
   22.2452  -19.3771    0.0000 C   0  0  0  0  0  0  0  0  0  0  0  0
   23.5044  -18.6776    0.0000 C   0  0  0  0  0  0  0  0  0  0  0  0
   24.6936  -19.3771    0.0000 N   0  0  0  0  0  0  0  0  0  0  0  0
   25.8828  -18.6776    0.0000 C   0  0  0  0  0  0  0  0  0  0  0  0
   25.8828  -17.2785    0.0000 C   0  0  0  0  0  0  0  0  0  0  0  0
   26.8621  -15.8794    0.0000 S   0  0  0  0  0  0  0  0  0  0  0  0
   25.9527  -14.6902    0.0000 C   0  0  0  0  0  0  0  0  0  0  0  0
   18.6776  -17.2785    0.0000 O   0  0  0  0  0  0  0  0  0  0  0  0
   19.8668  -12.3818    0.0000 O   0  0  0  0  0  0  0  0  0  0  0  0
   18.6776  -14.4804    0.0000 C   0  0  0  0  0  0  0  0  0  0  0  0
   17.4884  -15.1799    0.0000 C   0  0  0  0  0  0  0  0  0  0  0  0
   18.6776  -13.0813    0.0000 C   0  0  0  0  0  0  0  0  0  0  0  0
   21.5457  -11.1926    0.0000 C   0  0  0  0  0  0  0  0  0  0  0  0
   22.9447  -11.1926    0.0000 C   0  0  0  0  0  0  0  0  0  0  0  0
   19.8668  -19.3771    0.0000 C   0  0  0  0  0  0  0  0  0  0  0  0
   18.6776  -18.6776    0.0000 C   0  0  0  0  0  0  0  0  0  0  0  0
   17.4884  -19.3771    0.0000 C   0  0  0  0  0  0  0  0  0  0  0  0
   16.2992  -18.6776    0.0000 C   0  0  0  0  0  0  0  0  0  0  0  0
   15.1100  -19.3771    0.0000 S   0  0  0  0  0  0  0  0  0  0  0  0
   13.9207  -18.6776    0.0000 C   0  0  0  0  0  0  0  0  0  0  0  0
   12.7315  -19.3771    0.0000 C   0  0  0  0  0  0  0  0  0  0  0  0
   13.9207  -17.2785    0.0000 O   0  0  0  0  0  0  0  0  0  0  0  0
   11.5423  -18.6776    0.0000 C   0  0  0  0  0  0  0  0  0  0  0  0
   10.3531  -19.3771    0.0000 C   0  0  0  0  0  0  0  0  0  0  0  0
   11.5423  -17.2785    0.0000 C   0  0  0  0  0  0  0  0  0  0  0  0
   12.7315  -20.7762    0.0000 N   0  0  0  0  0  0  0  0  0  0  0  0
   28.6300  -17.9900    0.0000 C   0  0  0  0  0  0  0  0  0  0  0  0
   28.6300  -19.3900    0.0000 C   0  0  0  0  0  0  0  0  0  0  0  0
   29.8424  -20.0900    0.0000 C   0  0  0  0  0  0  0  0  0  0  0  0
   31.0549  -19.3900    0.0000 C   0  0  0  0  0  0  0  0  0  0  0  0
   31.0549  -17.9900    0.0000 C   0  0  0  0  0  0  0  0  0  0  0  0
   29.8424  -17.2900    0.0000 C   0  0  0  0  0  0  0  0  0  0  0  0
   29.8424  -15.8902    0.0000 S   0  0  0  0  0  0  0  0  0  0  0  0
   28.4424  -15.8902    0.0000 O   0  0  0  0  0  0  0  0  0  0  0  0
   31.2424  -15.8902    0.0000 O   0  0  0  0  0  0  0  0  0  0  0  0
   29.8424  -14.4902    0.0000 O   0  0  0  0  0  0  0  0  0  0  0  0
  1  2  1  0     0  0
  3  4  2  0     0  0
  4  5  1  0     0  0
  5  6  1  0     0  0
  1  6  1  0     0  0
  8  9  1  0     0  0
  4  9  1  0     0  0
  2 10  1  0     0  0
 10 11  1  0     0  0
 11 12  1  0     0  0
 12 13  1  0     0  0
 13 14  1  0     0  0
 14 15  1  0     0  0
 15  7  2  0     0  0
 15 16  1  0     0  0
 16 17  1  0     0  0
 17 18  1  0     0  0
 18  8  2  0     0  0
 18 19  1  0     0  0
 19 20  1  0     0  0
  9 20  2  0     0  0
 11 21  2  0     0  0
  1 22  2  0     0  0
 10 23  1  6     0  0
 23 24  1  0     0  0
 23 25  1  0     0  0
  6 26  1  6     0  0
  6 27  1  1     0  0
 13 28  1  1     0  0
 28 29  2  0     0  0
 29 30  1  0     0  0
 30 31  1  0     0  0
 31 32  1  0     0  0
 32 33  1  0     0  0
 33 34  1  0     0  0
 33 35  2  0     0  0
 34 36  1  0     0  0
 36 37  1  0     0  0
 36 38  1  0     0  0
 34 39  1  1     0  0
 40 41  2  0     0  0
 41 42  1  0     0  0
 42 43  2  0     0  0
 43 44  1  0     0  0
 44 45  2  0     0  0
 40 45  1  0     0  0
 45 46  1  0     0  0
 46 47  2  0     0  0
 46 48  2  0     0  0
 46 49  1  0     0  0
M  END
