 
 
 
 12 12  0  0  1  0  0  0  0  0999 V2000
   17.9775  -14.5633    0.0000 C   0  0  2  0  0  0  0  0  0  0  0  0
   17.9775  -15.9568    0.0000 C   0  0  2  0  0  0  0  0  0  0  0  0
   19.1621  -13.8665    0.0000 O   0  0  0  0  0  0  0  0  0  0  0  0
   16.7233  -13.8665    0.0000 C   0  0  0  0  0  0  0  0  0  0  0  0
   19.1621  -16.6536    0.0000 C   0  0  1  0  0  0  0  0  0  0  0  0
   16.7233  -16.6536    0.0000 O   0  0  0  0  0  0  0  0  0  0  0  0
   20.4163  -14.5633    0.0000 C   0  0  3  0  0  0  0  0  0  0  0  0
   15.6781  -14.7723    0.0000 O   0  0  0  0  0  0  0  0  0  0  0  0
   20.4163  -15.9568    0.0000 C   0  0  1  0  0  0  0  0  0  0  0  0
   19.1621  -18.0472    0.0000 O   0  0  0  0  0  0  0  0  0  0  0  0
   21.6008  -13.8665    0.0000 O   0  0  0  0  0  0  0  0  0  0  0  0
   21.6008  -16.6536    0.0000 O   0  0  0  0  0  0  0  0  0  0  0  0
  1  2  1  0     0  0
  1  3  1  0     0  0
  1  4  1  1     0  0
  2  5  1  0     0  0
  2  6  1  6     0  0
  3  7  1  0     0  0
  4  8  1  0     0  0
  5  9  1  0     0  0
  5 10  1  1     0  0
  7 11  1  6     0  0
  9 12  1  1     0  0
  7  9  1  0     0  0
M  END
