 
 
 
 26 29  0  0  0  0  0  0  0  0999 V2000
   18.0057  -15.6326    0.0000 C   0  0  0  0  0  0  0  0  0  0  0  0
   15.7724  -15.7024    0.0000 N   0  0  0  0  0  0  0  0  0  0  0  0
   16.1912  -16.9586    0.0000 C   0  0  0  0  0  0  0  0  0  0  0  0
   17.5869  -16.9586    0.0000 N   0  0  0  0  0  0  0  0  0  0  0  0
   16.8890  -14.7952    0.0000 C   0  0  0  0  0  0  0  0  0  0  0  0
   15.5631  -18.2148    0.0000 C   0  0  0  0  0  0  0  0  0  0  0  0
   16.2609  -19.4012    0.0000 N   0  0  0  0  0  0  0  0  0  0  0  0
   17.6567  -19.4012    0.0000 C   0  0  0  0  0  0  0  0  0  0  0  0
   18.3546  -18.1450    0.0000 C   0  0  0  0  0  0  0  0  0  0  0  0
   14.1414  -18.1934    0.0000 C   0  0  0  0  0  0  0  0  0  0  0  0
   13.4200  -19.4007    0.0000 C   0  0  0  0  0  0  0  0  0  0  0  0
   12.0400  -19.3798    0.0000 C   0  0  0  0  0  0  0  0  0  0  0  0
   11.3217  -20.5815    0.0000 C   0  0  0  0  0  0  0  0  0  0  0  0
   12.0033  -21.8044    0.0000 C   0  0  0  0  0  0  0  0  0  0  0  0
   13.3833  -21.8253    0.0000 C   0  0  0  0  0  0  0  0  0  0  0  0
   14.1016  -20.6236    0.0000 C   0  0  0  0  0  0  0  0  0  0  0  0
   15.4700  -20.6449    0.0000 F   0  0  0  0  0  0  0  0  0  0  0  0
   18.3574  -20.5922    0.0000 C   0  0  0  0  0  0  0  0  0  0  0  0
   17.8001  -21.8717    0.0000 N   0  0  0  0  0  0  0  0  0  0  0  0
   18.8448  -22.7971    0.0000 C   0  0  0  0  0  0  0  0  0  0  0  0
   20.0477  -22.0895    0.0000 N   0  0  0  0  0  0  0  0  0  0  0  0
   19.7464  -20.7268    0.0000 N   0  0  0  0  0  0  0  0  0  0  0  0
   18.7076  -24.2146    0.0000 C   0  0  0  0  0  0  0  0  0  0  0  0
   17.4168  -24.8022    0.0000 F   0  0  0  0  0  0  0  0  0  0  0  0
   19.8378  -25.0217    0.0000 F   0  0  0  0  0  0  0  0  0  0  0  0
   18.7076  -25.6146    0.0000 F   0  0  0  0  0  0  0  0  0  0  0  0
  2  3  2  0     0  0
  3  4  1  0     0  0
  4  1  1  0     0  0
  1  5  2  0     0  0
  2  5  1  0     0  0
  3  6  1  0     0  0
  6  7  2  0     0  0
  7  8  1  0     0  0
  8  9  2  0     0  0
  4  9  1  0     0  0
  6 10  1  0     0  0
 10 11  1  0     0  0
 11 12  2  0     0  0
 12 13  1  0     0  0
 13 14  2  0     0  0
 14 15  1  0     0  0
 15 16  2  0     0  0
 11 16  1  0     0  0
 16 17  1  0     0  0
  8 18  1  0     0  0
 18 19  1  0     0  0
 19 20  1  0     0  0
 20 21  2  0     0  0
 21 22  1  0     0  0
 18 22  2  0     0  0
 20 23  1  0     0  0
 23 24  1  0     0  0
 23 25  1  0     0  0
 23 26  1  0     0  0
M  END
