 
 
 
 20 22  0  0  1  0  0  0  0  0999 V2000
    6.6500   -6.5100    0.0000 C   0  0  0  0  0  0  0  0  0  0  0  0
    5.9500   -5.3200    0.0000 C   0  0  0  0  0  0  0  0  0  0  0  0
    4.5500   -5.3200    0.0000 C   0  0  0  0  0  0  0  0  0  0  0  0
    3.8500   -6.5100    0.0000 N   0  0  0  0  0  0  0  0  0  0  0  0
    4.5500   -7.7000    0.0000 C   0  0  0  0  0  0  0  0  0  0  0  0
    5.9500   -7.7000    0.0000 C   0  0  0  0  0  0  0  0  0  0  0  0
    7.6300   -5.5300    0.0000 C   0  0  0  0  0  0  0  0  0  0  0  0
    7.6300   -7.4900    0.0000 C   0  0  0  0  0  0  0  0  0  0  0  0
    8.6100   -6.5100    0.0000 N   0  0  0  0  0  0  0  0  0  0  0  0
   10.0100   -6.5100    0.0000 C   0  0  0  0  0  0  0  0  0  0  0  0
   10.7100   -7.7224    0.0000 C   0  0  0  0  0  0  0  0  0  0  0  0
   10.0196   -8.9179    0.0000 C   0  0  0  0  0  0  0  0  0  0  0  0
   10.7195  -10.1304    0.0000 C   0  0  0  0  0  0  0  0  0  0  0  0
   12.1195  -10.1306    0.0000 C   0  0  0  0  0  0  0  0  0  0  0  0
   12.8099   -8.9351    0.0000 C   0  0  0  0  0  0  0  0  0  0  0  0
   12.1100   -7.7226    0.0000 C   0  0  0  0  0  0  0  0  0  0  0  0
   12.8254  -11.3534    0.0000 O   0  0  0  0  0  0  0  0  0  0  0  0
   14.2099  -11.3532    0.0000 C   0  0  0  0  0  0  0  0  0  0  0  0
    7.6300   -8.8900    0.0000 O   0  0  0  0  0  0  0  0  0  0  0  0
    3.8549   -8.9153    0.0000 O   0  0  0  0  0  0  0  0  0  0  0  0
  1  2  1  0     0  0
  2  3  1  0     0  0
  3  4  1  0     0  0
  4  5  1  0     0  0
  5  6  1  0     0  0
  1  6  1  0     0  0
  1  7  1  1     0  0
  1  8  1  6     0  0
  8  9  1  0     0  0
  7  9  1  0     0  0
  9 10  1  0     0  0
 10 11  1  0     0  0
 11 12  2  0     0  0
 12 13  1  0     0  0
 13 14  2  0     0  0
 14 15  1  0     0  0
 15 16  2  0     0  0
 11 16  1  0     0  0
 14 17  1  0     0  0
 17 18  1  0     0  0
  8 19  2  0     0  0
  5 20  2  0     0  0
M  END
