 
 
 
 28 29  0  0  1  0  0  0  0  0999 V2000
   18.9773  -17.7824    0.0000 C   0  0  0  0  0  0  0  0  0  0  0  0
   20.1721  -18.4853    0.0000 O   0  0  0  0  0  0  0  0  0  0  0  0
   17.7824  -18.4853    0.0000 O   0  0  0  0  0  0  0  0  0  0  0  0
   18.9773  -16.3767    0.0000 C   0  0  0  0  0  0  0  0  0  0  0  0
   19.9613  -15.3927    0.0000 C   0  0  0  0  0  0  0  0  0  0  0  0
   18.9773  -14.4087    0.0000 C   0  0  0  0  0  0  0  0  0  0  0  0
   17.9933  -15.3927    0.0000 N   0  0  0  0  0  0  0  0  0  0  0  0
   18.9773  -13.0030    0.0000 O   0  0  0  0  0  0  0  0  0  0  0  0
   16.5876  -15.3927    0.0000 C   0  0  0  0  0  0  0  0  0  0  0  0
   21.3670  -15.3927    0.0000 C   0  0  0  0  0  0  0  0  0  0  0  0
   15.8847  -14.1979    0.0000 O   0  0  0  0  0  0  0  0  0  0  0  0
   15.8847  -16.5876    0.0000 N   0  0  0  0  0  0  0  0  0  0  0  0
   14.4790  -16.5876    0.0000 C   0  0  0  0  0  0  0  0  0  0  0  0
   13.7762  -17.8527    0.0000 C   0  0  0  0  0  0  0  0  0  0  0  0
   13.7762  -15.3927    0.0000 C   0  0  0  0  0  0  0  0  0  0  0  0
   12.3705  -17.8527    0.0000 C   0  0  0  0  0  0  0  0  0  0  0  0
   11.6676  -19.0476    0.0000 C   0  0  0  0  0  0  0  0  0  0  0  0
   12.3705  -20.2424    0.0000 C   0  0  0  0  0  0  0  0  0  0  0  0
   13.7762  -20.2424    0.0000 C   0  0  0  0  0  0  0  0  0  0  0  0
   14.4790  -19.0476    0.0000 C   0  0  0  0  0  0  0  0  0  0  0  0
   22.0698  -14.1979    0.0000 C   0  0  0  0  0  0  0  0  0  0  0  0
   23.4755  -14.1979    0.0000 C   0  0  0  0  0  0  0  0  0  0  0  0
   24.1784  -12.9328    0.0000 C   0  0  0  0  0  0  0  0  0  0  0  0
   23.4755  -11.7379    0.0000 N   0  0  0  0  0  0  0  0  0  0  0  0
   22.0698  -11.7379    0.0000 C   0  0  0  0  0  0  0  0  0  0  0  0
   21.3670  -12.9328    0.0000 C   0  0  0  0  0  0  0  0  0  0  0  0
   25.5841  -12.9328    0.0000 N   0  0  0  0  0  0  0  0  0  0  0  0
   26.2500  -18.5500    0.0000 Cl  0  0  0  0  0  0  0  0  0  0  0  0
  1  2  1  0     0  0
  1  3  2  0     0  0
  4  1  1  1     0  0
  4  5  1  0     0  0
  5  6  1  0     0  0
  6  7  1  0     0  0
  4  7  1  0     0  0
  6  8  2  0     0  0
  7  9  1  0     0  0
  5 10  1  6     0  0
  9 11  2  0     0  0
  9 12  1  0     0  0
 12 13  1  0     0  0
 13 14  1  0     0  0
 13 15  1  1     0  0
 14 16  1  0     0  0
 16 17  1  0     0  0
 17 18  1  0     0  0
 18 19  1  0     0  0
 19 20  1  0     0  0
 14 20  1  0     0  0
 10 21  1  0     0  0
 21 22  2  0     0  0
 22 23  1  0     0  0
 23 24  2  0     0  0
 24 25  1  0     0  0
 25 26  2  0     0  0
 21 26  1  0     0  0
 23 27  1  0     0  0
M  END
