 
 
 
 42 45  0  0  1  0  0  0  0  0999 V2000
   16.3673  -15.2914    0.0000 C   0  0  0  0  0  0  0  0  0  0  0  0
   17.7772  -15.2914    0.0000 C   0  0  0  0  0  0  0  0  0  0  0  0
   18.7642  -16.2784    0.0000 N   0  0  0  0  0  0  0  0  0  0  0  0
   18.7642  -17.6883    0.0000 C   0  0  0  0  0  0  0  0  0  0  0  0
   17.7772  -18.6753    0.0000 C   0  0  0  0  0  0  0  0  0  0  0  0
   16.3673  -18.6753    0.0000 C   0  0  0  0  0  0  0  0  0  0  0  0
   15.3803  -17.6883    0.0000 N   0  0  0  0  0  0  0  0  0  0  0  0
   15.3803  -16.2784    0.0000 C   0  0  0  0  0  0  0  0  0  0  0  0
   20.1036  -18.1113    0.0000 C   0  0  0  0  0  0  0  0  0  0  0  0
   20.9496  -16.9834    0.0000 C   0  0  0  0  0  0  0  0  0  0  0  0
   20.1036  -15.8554    0.0000 C   0  0  0  0  0  0  0  0  0  0  0  0
   20.5266  -14.5160    0.0000 C   0  0  0  0  0  0  0  0  0  0  0  0
   21.9366  -14.2340    0.0000 N   0  0  0  0  0  0  0  0  0  0  0  0
   19.6102  -13.4585    0.0000 O   0  0  0  0  0  0  0  0  0  0  0  0
   23.1350  -14.9389    0.0000 C   0  0  0  0  0  0  0  0  0  0  0  0
   24.3335  -14.2340    0.0000 C   0  0  0  0  0  0  0  0  0  0  0  0
   23.1350  -16.3489    0.0000 C   0  0  0  0  0  0  0  0  0  0  0  0
   21.9366  -17.0539    0.0000 C   0  0  0  0  0  0  0  0  0  0  0  0
   21.9366  -18.4638    0.0000 C   0  0  0  0  0  0  0  0  0  0  0  0
   23.1350  -19.1688    0.0000 C   0  0  0  0  0  0  0  0  0  0  0  0
   24.3335  -18.4638    0.0000 C   0  0  0  0  0  0  0  0  0  0  0  0
   24.3335  -17.0539    0.0000 C   0  0  0  0  0  0  0  0  0  0  0  0
   25.5319  -14.9389    0.0000 C   0  0  0  0  0  0  0  0  0  0  0  0
   26.7304  -14.2340    0.0000 C   0  0  0  0  0  0  0  0  0  0  0  0
   26.7304  -12.8240    0.0000 C   0  0  0  0  0  0  0  0  0  0  0  0
   25.5319  -12.1191    0.0000 C   0  0  0  0  0  0  0  0  0  0  0  0
   24.3335  -12.8240    0.0000 C   0  0  0  0  0  0  0  0  0  0  0  0
   18.7642  -19.0983    0.0000 H   0  0  0  0  0  0  0  0  0  0  0  0
   18.3412  -14.0225    0.0000 O   0  0  0  0  0  0  0  0  0  0  0  0
   12.9834  -17.6883    0.0000 C   0  0  0  0  0  0  0  0  0  0  0  0
   14.1819  -18.3933    0.0000 C   0  0  0  0  0  0  0  0  0  0  0  0
   14.1819  -19.8033    0.0000 O   0  0  0  0  0  0  0  0  0  0  0  0
   11.7850  -18.3933    0.0000 C   0  0  0  0  0  0  0  0  0  0  0  0
   10.5865  -17.6883    0.0000 C   0  0  0  0  0  0  0  0  0  0  0  0
   11.7850  -19.8033    0.0000 C   0  0  0  0  0  0  0  0  0  0  0  0
   15.1688  -14.5865    0.0000 N   0  0  0  0  0  0  0  0  0  0  0  0
   13.9704  -15.2914    0.0000 C   0  0  0  0  0  0  0  0  0  0  0  0
   12.7719  -14.5865    0.0000 C   0  0  0  0  0  0  0  0  0  0  0  0
   13.9704  -16.7014    0.0000 O   0  0  0  0  0  0  0  0  0  0  0  0
   11.5735  -15.2914    0.0000 C   0  0  0  0  0  0  0  0  0  0  0  0
   12.7719  -13.1765    0.0000 N   0  0  0  0  0  0  0  0  0  0  0  0
   11.5735  -12.4715    0.0000 C   0  0  0  0  0  0  0  0  0  0  0  0
  1  2  1  0     0  0
  2  3  1  0     0  0
  3  4  1  0     0  0
  4  5  1  0     0  0
  5  6  1  0     0  0
  6  7  1  0     0  0
  7  8  1  0     0  0
  8  1  1  0     0  0
  4  9  1  0     0  0
  9 10  1  0     0  0
 10 11  1  0     0  0
  3 11  1  0     0  0
 11 12  1  6     0  0
 12 13  1  0     0  0
 12 14  2  0     0  0
 13 15  1  0     0  0
 15 16  1  0     0  0
 15 17  1  0     0  0
 17 18  2  0     0  0
 18 19  1  0     0  0
 19 20  2  0     0  0
 20 21  1  0     0  0
 21 22  2  0     0  0
 17 22  1  0     0  0
 16 23  2  0     0  0
 23 24  1  0     0  0
 24 25  2  0     0  0
 25 26  1  0     0  0
 26 27  2  0     0  0
 16 27  1  0     0  0
  4 28  1  1     0  0
  2 29  2  0     0  0
 30 31  1  0     0  0
 31  7  1  0     0  0
 31 32  2  0     0  0
 30 33  1  0     0  0
 33 34  1  0     0  0
 33 35  1  0     0  0
  1 36  1  6     0  0
 36 37  1  0     0  0
 37 38  1  0     0  0
 37 39  2  0     0  0
 38 40  1  0     0  0
 38 41  1  6     0  0
 41 42  1  0     0  0
M  END
