 
 
 
 39 38  0  0  0  0  0  0  0  0999 V2000
   19.1823  -16.3119    0.0000 C   0  0  0  0  0  0  0  0  0  0  0  0
   19.1823  -17.7121    0.0000 C   0  0  0  0  0  0  0  0  0  0  0  0
   20.4424  -18.4122    0.0000 C   0  0  0  0  0  0  0  0  0  0  0  0
   21.6326  -17.7121    0.0000 C   0  0  0  0  0  0  0  0  0  0  0  0
   21.6326  -16.3119    0.0000 C   0  0  0  0  0  0  0  0  0  0  0  0
   20.4424  -15.6119    0.0000 C   0  0  0  0  0  0  0  0  0  0  0  0
   22.8927  -15.6119    0.0000 C   0  0  0  0  0  0  0  0  0  0  0  0
   24.0829  -16.3119    0.0000 C   0  0  0  0  0  0  0  0  0  0  0  0
   25.2730  -15.6119    0.0000 C   0  0  0  0  0  0  0  0  0  0  0  0
   26.5332  -16.3119    0.0000 C   0  0  0  0  0  0  0  0  0  0  0  0
   27.7233  -15.6119    0.0000 O   0  0  0  0  0  0  0  0  0  0  0  0
   24.0829  -14.9118    0.0000 N   0  3  0  0  0  0  0  0  0  0  0  0
   26.5332  -14.9118    0.0000 C   0  0  0  0  0  0  0  0  0  0  0  0
   26.5332  -13.5116    0.0000 O   0  0  0  0  0  0  0  0  0  0  0  0
   17.9921  -18.4122    0.0000 C   0  0  0  0  0  0  0  0  0  0  0  0
   16.8020  -17.7121    0.0000 C   0  0  0  0  0  0  0  0  0  0  0  0
   15.6119  -18.4122    0.0000 C   0  0  0  0  0  0  0  0  0  0  0  0
   14.3517  -17.7121    0.0000 C   0  0  0  0  0  0  0  0  0  0  0  0
   13.1616  -18.4122    0.0000 C   0  0  0  0  0  0  0  0  0  0  0  0
   11.9714  -17.7121    0.0000 C   0  0  0  0  0  0  0  0  0  0  0  0
   10.7813  -18.4122    0.0000 C   0  0  0  0  0  0  0  0  0  0  0  0
    9.5911  -17.7121    0.0000 C   0  0  0  0  0  0  0  0  0  0  0  0
   46.6201  -14.8081    0.0000 C   0  0  0  0  0  0  0  0  0  0  0  0
   45.4274  -15.5097    0.0000 C   0  0  0  0  0  0  0  0  0  0  0  0
   44.2347  -14.8081    0.0000 C   0  0  0  0  0  0  0  0  0  0  0  0
   42.9719  -15.5097    0.0000 C   0  0  0  0  0  0  0  0  0  0  0  0
   41.7792  -14.8081    0.0000 C   0  0  0  0  0  0  0  0  0  0  0  0
   40.5865  -15.5097    0.0000 C   0  0  0  0  0  0  0  0  0  0  0  0
   39.3939  -14.8081    0.0000 C   0  0  0  0  0  0  0  0  0  0  0  0
   38.2012  -15.5097    0.0000 C   0  0  0  0  0  0  0  0  0  0  0  0
   36.9384  -14.8081    0.0000 C   0  0  0  0  0  0  0  0  0  0  0  0
   35.7457  -15.5097    0.0000 C   0  0  0  0  0  0  0  0  0  0  0  0
   34.5530  -14.8081    0.0000 C   0  0  0  0  0  0  0  0  0  0  0  0
   33.3603  -15.5097    0.0000 O   0  0  0  0  0  0  0  0  0  0  0  0
   47.8829  -15.5097    0.0000 C   0  0  0  0  0  0  0  0  0  0  0  0
   31.9572  -15.5097    0.0000 S   0  0  0  0  0  0  0  0  0  0  0  0
   30.5540  -15.5097    0.0000 O   0  5  0  0  0  0  0  0  0  0  0  0
   31.9572  -14.1065    0.0000 O   0  0  0  0  0  0  0  0  0  0  0  0
   31.9572  -16.9128    0.0000 O   0  0  0  0  0  0  0  0  0  0  0  0
  1  2  2  0     0  0
  2  3  1  0     0  0
  3  4  2  0     0  0
  4  5  1  0     0  0
  5  6  2  0     0  0
  1  6  1  0     0  0
  5  7  1  0     0  0
  7  8  1  0     0  0
  8  9  1  0     0  0
  9 10  1  0     0  0
 10 11  1  0     0  0
  9 12  1  0     0  0
  9 13  1  0     0  0
 13 14  1  0     0  0
  2 15  1  0     0  0
 15 16  1  0     0  0
 16 17  1  0     0  0
 17 18  1  0     0  0
 18 19  1  0     0  0
 19 20  1  0     0  0
 20 21  1  0     0  0
 21 22  1  0     0  0
 23 24  1  0     0  0
 24 25  1  0     0  0
 25 26  1  0     0  0
 26 27  1  0     0  0
 27 28  1  0     0  0
 28 29  1  0     0  0
 29 30  1  0     0  0
 30 31  1  0     0  0
 31 32  1  0     0  0
 32 33  1  0     0  0
 33 34  1  0     0  0
 23 35  1  0     0  0
 34 36  1  0     0  0
 36 37  1  0     0  0
 36 38  2  0     0  0
 36 39  2  0     0  0
M  CHG  2  12   1  37  -1
M  END
