 
 
 
 33 36  0  0  0  0  0  0  0  0999 V2000
    6.7900  -11.6900    0.0000 C   0  0  0  0  0  0  0  0  0  0  0  0
    6.7900  -13.0900    0.0000 C   0  0  0  0  0  0  0  0  0  0  0  0
    8.0024  -13.7900    0.0000 C   0  0  0  0  0  0  0  0  0  0  0  0
    9.2149  -13.0900    0.0000 N   0  0  0  0  0  0  0  0  0  0  0  0
    9.2149  -11.6900    0.0000 C   0  0  0  0  0  0  0  0  0  0  0  0
    8.0024  -10.9900    0.0000 N   0  0  0  0  0  0  0  0  0  0  0  0
   10.4460  -10.9790    0.0000 O   0  0  0  0  0  0  0  0  0  0  0  0
   11.6512  -11.6747    0.0000 C   0  0  0  0  0  0  0  0  0  0  0  0
   11.6516  -13.0896    0.0000 C   0  0  0  0  0  0  0  0  0  0  0  0
   12.8642  -13.7893    0.0000 C   0  0  0  0  0  0  0  0  0  0  0  0
   14.0765  -13.0889    0.0000 C   0  0  0  0  0  0  0  0  0  0  0  0
   14.0760  -11.6739    0.0000 C   0  0  0  0  0  0  0  0  0  0  0  0
   12.8634  -10.9743    0.0000 C   0  0  0  0  0  0  0  0  0  0  0  0
   15.2891  -13.7885    0.0000 C   0  0  0  0  0  0  0  0  0  0  0  0
   16.5013  -13.0882    0.0000 C   0  0  0  0  0  0  0  0  0  0  0  0
   16.5009  -11.6732    0.0000 C   0  0  0  0  0  0  0  0  0  0  0  0
   15.2883  -10.9736    0.0000 O   0  0  0  0  0  0  0  0  0  0  0  0
   17.7287  -13.7964    0.0000 C   0  0  0  0  0  0  0  0  0  0  0  0
   18.9296  -13.1026    0.0000 C   0  0  0  0  0  0  0  0  0  0  0  0
   17.7199  -10.9688    0.0000 O   0  0  0  0  0  0  0  0  0  0  0  0
   15.2895  -15.1897    0.0000 C   0  0  0  0  0  0  0  0  0  0  0  0
   20.1146  -13.7863    0.0000 C   0  0  0  0  0  0  0  0  0  0  0  0
   21.3268  -13.0859    0.0000 C   0  0  0  0  0  0  0  0  0  0  0  0
   21.3264  -11.6859    0.0000 N   0  0  0  0  0  0  0  0  0  0  0  0
   20.1415  -11.0022    0.0000 C   0  0  0  0  0  0  0  0  0  0  0  0
   18.9292  -11.7026    0.0000 C   0  0  0  0  0  0  0  0  0  0  0  0
   22.5585  -13.7968    0.0000 N   0  0  0  0  0  0  0  0  0  0  0  0
   23.7597  -13.1028    0.0000 S   0  0  0  0  0  0  0  0  0  0  0  0
   24.9445  -13.7865    0.0000 N   0  0  0  0  0  0  0  0  0  0  0  0
   26.1368  -13.0976    0.0000 C   0  0  0  0  0  0  0  0  0  0  0  0
   20.1150  -15.1898    0.0000 F   0  0  0  0  0  0  0  0  0  0  0  0
   23.0597  -11.8904    0.0000 O   0  0  0  0  0  0  0  0  0  0  0  0
   24.4597  -11.8904    0.0000 O   0  0  0  0  0  0  0  0  0  0  0  0
  1  2  2  0     0  0
  2  3  1  0     0  0
  3  4  2  0     0  0
  4  5  1  0     0  0
  5  6  2  0     0  0
  1  6  1  0     0  0
  5  7  1  0     0  0
  7  8  1  0     0  0
  8  9  2  0     0  0
  9 10  1  0     0  0
 10 11  2  0     0  0
 11 12  1  0     0  0
 12 13  2  0     0  0
  8 13  1  0     0  0
 11 14  1  0     0  0
 14 15  2  0     0  0
 15 16  1  0     0  0
 16 17  1  0     0  0
 12 17  1  0     0  0
 15 18  1  0     0  0
 18 19  1  0     0  0
 16 20  2  0     0  0
 14 21  1  0     0  0
 19 22  2  0     0  0
 22 23  1  0     0  0
 23 24  2  0     0  0
 24 25  1  0     0  0
 25 26  2  0     0  0
 19 26  1  0     0  0
 23 27  1  0     0  0
 27 28  1  0     0  0
 28 29  1  0     0  0
 29 30  1  0     0  0
 22 31  1  0     0  0
 28 32  2  0     0  0
 28 33  2  0     0  0
M  END
