 
 
 
131150  0  0  1  0  0  0  0  0999 V2000
   16.5200  -15.6100    0.0000 C   0  0  0  0  0  0  0  0  0  0  0  0
   16.5200  -17.0100    0.0000 N   0  0  0  0  0  0  0  0  0  0  0  0
   17.7100  -17.7100    0.0000 C   0  0  0  0  0  0  0  0  0  0  0  0
   18.9700  -17.0100    0.0000 C   0  0  0  0  0  0  0  0  0  0  0  0
   18.9700  -15.6100    0.0000 C   0  0  0  0  0  0  0  0  0  0  0  0
   17.7100  -14.9100    0.0000 C   0  0  0  0  0  0  0  0  0  0  0  0
   20.3000  -17.4300    0.0000 C   0  0  0  0  0  0  0  0  0  0  0  0
   21.0700  -16.3100    0.0000 N   0  0  0  0  0  0  0  0  0  0  0  0
   20.3000  -15.1900    0.0000 N   0  0  0  0  0  0  0  0  0  0  0  0
   22.4700  -16.3100    0.0000 C   0  0  0  0  0  0  0  0  0  0  0  0
   23.1700  -17.5000    0.0000 C   0  0  0  0  0  0  0  0  0  0  0  0
   24.5700  -17.5000    0.0000 C   0  0  0  0  0  0  0  0  0  0  0  0
   25.2700  -16.3100    0.0000 C   0  0  0  0  0  0  0  0  0  0  0  0
   24.5700  -15.1200    0.0000 C   0  0  0  0  0  0  0  0  0  0  0  0
   23.1700  -15.1200    0.0000 C   0  0  0  0  0  0  0  0  0  0  0  0
   25.2700  -13.9300    0.0000 C   0  0  0  0  0  0  0  0  0  0  0  0
   26.6700  -16.3100    0.0000 F   0  0  0  0  0  0  0  0  0  0  0  0
   25.2700  -18.6900    0.0000 C   0  0  0  0  0  0  0  0  0  0  0  0
   20.7200  -18.7600    0.0000 N   0  0  0  0  0  0  0  0  0  0  0  0
   19.8800  -19.8800    0.0000 C   0  0  0  0  0  0  0  0  0  0  0  0
   20.7200  -21.0000    0.0000 C   0  0  0  0  0  0  0  0  0  0  0  0
   22.0500  -20.5800    0.0000 N   0  0  0  0  0  0  0  0  0  0  0  0
   22.0500  -19.1800    0.0000 C   0  0  0  0  0  0  0  0  0  0  0  0
   23.1700  -18.3400    0.0000 O   0  0  0  0  0  0  0  0  0  0  0  0
   23.1700  -21.4200    0.0000 C   0  0  0  0  0  0  0  0  0  0  0  0
   23.1700  -22.8200    0.0000 C   0  0  0  0  0  0  0  0  0  0  0  0
   24.3600  -23.5200    0.0000 C   0  0  0  0  0  0  0  0  0  0  0  0
   25.6200  -22.8200    0.0000 C   0  0  0  0  0  0  0  0  0  0  0  0
   25.6200  -21.4200    0.0000 C   0  0  0  0  0  0  0  0  0  0  0  0
   24.3600  -20.7200    0.0000 C   0  0  0  0  0  0  0  0  0  0  0  0
   26.9500  -23.2400    0.0000 N   0  0  0  0  0  0  0  0  0  0  0  0
   27.7200  -22.1200    0.0000 N   0  0  0  0  0  0  0  0  0  0  0  0
   26.9500  -21.0000    0.0000 C   0  0  0  0  0  0  0  0  0  0  0  0
   24.3600  -19.3200    0.0000 F   0  0  0  0  0  0  0  0  0  0  0  0
   27.4400  -24.5700    0.0000 C   0  0  0  0  0  0  0  0  0  0  0  0
   17.7100  -19.1100    0.0000 C   0  0  0  0  0  0  0  0  0  0  0  0
   15.3300  -17.7100    0.0000 C   0  0  0  0  0  0  0  0  0  0  0  0
   14.1400  -17.0100    0.0000 C   0  0  0  0  0  0  0  0  0  0  0  0
   15.3300  -19.1100    0.0000 O   0  0  0  0  0  0  0  0  0  0  0  0
   14.0000  -15.6100    0.0000 C   0  0  0  0  0  0  0  0  0  0  0  0
   12.6000  -15.3300    0.0000 C   0  0  0  0  0  0  0  0  0  0  0  0
   11.9000  -16.5200    0.0000 C   0  0  0  0  0  0  0  0  0  0  0  0
   12.8100  -17.5700    0.0000 N   0  0  0  0  0  0  0  0  0  0  0  0
   11.9000  -14.1400    0.0000 C   0  0  0  0  0  0  0  0  0  0  0  0
   10.5000  -14.0700    0.0000 C   0  0  0  0  0  0  0  0  0  0  0  0
    9.8000  -15.3300    0.0000 C   0  0  0  0  0  0  0  0  0  0  0  0
   10.5000  -16.5200    0.0000 C   0  0  0  0  0  0  0  0  0  0  0  0
    9.8000  -12.8800    0.0000 C   0  0  0  0  0  0  0  0  0  0  0  0
   10.5000  -11.6900    0.0000 C   0  0  0  0  0  0  0  0  0  0  0  0
    9.8000  -10.4300    0.0000 C   0  0  0  0  0  0  0  0  0  0  0  0
    8.4000  -10.4300    0.0000 O   0  0  0  0  0  0  0  0  0  0  0  0
    7.7000  -11.6200    0.0000 C   0  0  0  0  0  0  0  0  0  0  0  0
    8.4000  -12.8800    0.0000 C   0  0  0  0  0  0  0  0  0  0  0  0
   10.7800   -9.4500    0.0000 C   0  0  0  0  0  0  0  0  0  0  0  0
    9.1000   -9.2400    0.0000 C   0  0  0  0  0  0  0  0  0  0  0  0
   12.1100  -18.7600    0.0000 C   0  0  0  0  0  0  0  0  0  0  0  0
   11.7390  -20.0898    0.0000 C   0  0  0  0  0  0  0  0  0  0  0  0
   13.0921  -19.7304    0.0000 C   0  0  0  0  0  0  0  0  0  0  0  0
   14.4451  -20.0901    0.0000 C   0  0  0  0  0  0  0  0  0  0  0  0
   10.7100  -18.7570    0.0000 C   0  0  0  0  0  0  0  0  0  0  0  0
    9.9012  -17.6384    0.0000 N   0  5  0  0  0  0  0  0  0  0  0  0
    8.5874  -18.0619    0.0000 C   0  0  0  0  0  0  0  0  0  0  0  0
    8.5842  -19.4423    0.0000 O   0  0  0  0  0  0  0  0  0  0  0  0
    9.8960  -19.8719    0.0000 N   0  0  0  0  0  0  0  0  0  0  0  0
    7.4399  -17.2246    0.0000 O   0  0  0  0  0  0  0  0  0  0  0  0
   31.5000  -19.2500    0.0000 Ca  0  2  0  0  0  0  0  0  0  0  0  0
   16.5200  -15.6100    0.0000 C   0  0  0  0  0  0  0  0  0  0  0  0
   16.5200  -17.0100    0.0000 N   0  0  0  0  0  0  0  0  0  0  0  0
   17.7100  -17.7100    0.0000 C   0  0  0  0  0  0  0  0  0  0  0  0
   18.9700  -17.0100    0.0000 C   0  0  0  0  0  0  0  0  0  0  0  0
   18.9700  -15.6100    0.0000 C   0  0  0  0  0  0  0  0  0  0  0  0
   17.7100  -14.9100    0.0000 C   0  0  0  0  0  0  0  0  0  0  0  0
   20.3000  -15.1900    0.0000 N   0  0  0  0  0  0  0  0  0  0  0  0
   21.0700  -16.3100    0.0000 N   0  0  0  0  0  0  0  0  0  0  0  0
   20.3000  -17.4300    0.0000 C   0  0  0  0  0  0  0  0  0  0  0  0
   20.7200  -18.7600    0.0000 N   0  0  0  0  0  0  0  0  0  0  0  0
   19.8800  -19.8800    0.0000 C   0  0  0  0  0  0  0  0  0  0  0  0
   20.7200  -21.0000    0.0000 C   0  0  0  0  0  0  0  0  0  0  0  0
   22.0500  -20.5800    0.0000 N   0  0  0  0  0  0  0  0  0  0  0  0
   22.0500  -19.1800    0.0000 C   0  0  0  0  0  0  0  0  0  0  0  0
   23.1700  -18.3400    0.0000 O   0  0  0  0  0  0  0  0  0  0  0  0
   23.1700  -21.4200    0.0000 C   0  0  0  0  0  0  0  0  0  0  0  0
   23.1700  -22.8200    0.0000 C   0  0  0  0  0  0  0  0  0  0  0  0
   24.3600  -23.5200    0.0000 C   0  0  0  0  0  0  0  0  0  0  0  0
   25.6200  -22.8200    0.0000 C   0  0  0  0  0  0  0  0  0  0  0  0
   25.6200  -21.4200    0.0000 C   0  0  0  0  0  0  0  0  0  0  0  0
   24.3600  -20.7200    0.0000 C   0  0  0  0  0  0  0  0  0  0  0  0
   24.3600  -19.3200    0.0000 F   0  0  0  0  0  0  0  0  0  0  0  0
   26.9500  -21.0000    0.0000 C   0  0  0  0  0  0  0  0  0  0  0  0
   27.7200  -22.1200    0.0000 N   0  0  0  0  0  0  0  0  0  0  0  0
   26.9500  -23.2400    0.0000 N   0  0  0  0  0  0  0  0  0  0  0  0
   27.4400  -24.5700    0.0000 C   0  0  0  0  0  0  0  0  0  0  0  0
   22.4700  -16.3100    0.0000 C   0  0  0  0  0  0  0  0  0  0  0  0
   23.1700  -17.5000    0.0000 C   0  0  0  0  0  0  0  0  0  0  0  0
   24.5700  -17.5000    0.0000 C   0  0  0  0  0  0  0  0  0  0  0  0
   25.2700  -16.3100    0.0000 C   0  0  0  0  0  0  0  0  0  0  0  0
   24.5700  -15.1200    0.0000 C   0  0  0  0  0  0  0  0  0  0  0  0
   23.1700  -15.1200    0.0000 C   0  0  0  0  0  0  0  0  0  0  0  0
   25.2700  -13.9300    0.0000 C   0  0  0  0  0  0  0  0  0  0  0  0
   26.6700  -16.3100    0.0000 F   0  0  0  0  0  0  0  0  0  0  0  0
   25.2700  -18.6900    0.0000 C   0  0  0  0  0  0  0  0  0  0  0  0
   17.7100  -19.1100    0.0000 C   0  0  0  0  0  0  0  0  0  0  0  0
   15.3300  -17.7100    0.0000 C   0  0  0  0  0  0  0  0  0  0  0  0
   14.1400  -17.0100    0.0000 C   0  0  0  0  0  0  0  0  0  0  0  0
   14.0000  -15.6100    0.0000 C   0  0  0  0  0  0  0  0  0  0  0  0
   12.6000  -15.3300    0.0000 C   0  0  0  0  0  0  0  0  0  0  0  0
   11.9000  -16.5200    0.0000 C   0  0  0  0  0  0  0  0  0  0  0  0
   12.8100  -17.5700    0.0000 N   0  0  0  0  0  0  0  0  0  0  0  0
   12.1100  -18.7600    0.0000 C   0  0  0  0  0  0  0  0  0  0  0  0
   13.0921  -19.7304    0.0000 C   0  0  0  0  0  0  0  0  0  0  0  0
   11.7390  -20.0898    0.0000 C   0  0  0  0  0  0  0  0  0  0  0  0
   14.4451  -20.0901    0.0000 C   0  0  0  0  0  0  0  0  0  0  0  0
   10.7100  -18.7570    0.0000 C   0  0  0  0  0  0  0  0  0  0  0  0
    9.9012  -17.6384    0.0000 N   0  5  0  0  0  0  0  0  0  0  0  0
    8.5874  -18.0619    0.0000 C   0  0  0  0  0  0  0  0  0  0  0  0
    8.5842  -19.4423    0.0000 O   0  0  0  0  0  0  0  0  0  0  0  0
    9.8960  -19.8719    0.0000 N   0  0  0  0  0  0  0  0  0  0  0  0
    7.4399  -17.2246    0.0000 O   0  0  0  0  0  0  0  0  0  0  0  0
   10.5000  -16.5200    0.0000 C   0  0  0  0  0  0  0  0  0  0  0  0
    9.8000  -15.3300    0.0000 C   0  0  0  0  0  0  0  0  0  0  0  0
   10.5000  -14.0700    0.0000 C   0  0  0  0  0  0  0  0  0  0  0  0
   11.9000  -14.1400    0.0000 C   0  0  0  0  0  0  0  0  0  0  0  0
    9.8000  -12.8800    0.0000 C   0  0  0  0  0  0  0  0  0  0  0  0
   10.5000  -11.6900    0.0000 C   0  0  0  0  0  0  0  0  0  0  0  0
    9.8000  -10.4300    0.0000 C   0  0  0  0  0  0  0  0  0  0  0  0
    8.4000  -10.4300    0.0000 O   0  0  0  0  0  0  0  0  0  0  0  0
    7.7000  -11.6200    0.0000 C   0  0  0  0  0  0  0  0  0  0  0  0
    8.4000  -12.8800    0.0000 C   0  0  0  0  0  0  0  0  0  0  0  0
   10.7800   -9.4500    0.0000 C   0  0  0  0  0  0  0  0  0  0  0  0
    9.1000   -9.2400    0.0000 C   0  0  0  0  0  0  0  0  0  0  0  0
   15.3300  -19.1100    0.0000 O   0  0  0  0  0  0  0  0  0  0  0  0
  1  2  1  0     0  0
  2  3  1  0     0  0
  3  4  1  0     0  0
  4  5  1  0     0  0
  5  6  1  0     0  0
  1  6  1  0     0  0
  4  7  2  0     0  0
  7  8  1  0     0  0
  8  9  1  0     0  0
  5  9  2  0     0  0
  8 10  1  0     0  0
 10 11  2  0     0  0
 11 12  1  0     0  0
 12 13  2  0     0  0
 13 14  1  0     0  0
 14 15  2  0     0  0
 10 15  1  0     0  0
 14 16  1  0     0  0
 13 17  1  0     0  0
 12 18  1  0     0  0
  7 19  1  0     0  0
 19 20  1  0     0  0
 20 21  2  0     0  0
 21 22  1  0     0  0
 22 23  1  0     0  0
 19 23  1  0     0  0
 23 24  2  0     0  0
 22 25  1  0     0  0
 25 26  2  0     0  0
 26 27  1  0     0  0
 27 28  2  0     0  0
 28 29  1  0     0  0
 29 30  2  0     0  0
 25 30  1  0     0  0
 28 31  1  0     0  0
 31 32  1  0     0  0
 32 33  2  0     0  0
 29 33  1  0     0  0
 30 34  1  0     0  0
 31 35  1  0     0  0
  3 36  1  6     0  0
  2 37  1  0     0  0
 37 38  1  0     0  0
 37 39  2  0     0  0
 38 40  2  0     0  0
 40 41  1  0     0  0
 41 42  1  0     0  0
 42 43  1  0     0  0
 38 43  1  0     0  0
 41 44  2  0     0  0
 44 45  1  0     0  0
 45 46  2  0     0  0
 46 47  1  0     0  0
 42 47  2  0     0  0
 48 45  1  1     0  0
 48 49  1  0     0  0
 49 50  1  0     0  0
 50 51  1  0     0  0
 51 52  1  0     0  0
 52 53  1  0     0  0
 48 53  1  0     0  0
 50 54  1  1     0  0
 50 55  1  6     0  0
 56 43  1  6     0  0
 57 58  1  0     0  0
 58 56  1  0     0  0
 56 57  1  0     0  0
 58 59  1  1     0  0
 56 60  1  1     0  0
 60 61  1  0     0  0
 61 62  1  0     0  0
 62 63  1  0     0  0
 63 64  1  0     0  0
 60 64  2  0     0  0
 62 65  2  0     0  0
 67 68  1  0     0  0
 68 69  1  0     0  0
 69 70  1  0     0  0
 70 71  1  0     0  0
 71 72  1  0     0  0
 67 72  1  0     0  0
 70 75  2  0     0  0
 75 74  1  0     0  0
 74 73  1  0     0  0
 71 73  2  0     0  0
 74 93  1  0     0  0
 93 94  2  0     0  0
 94 95  1  0     0  0
 95 96  2  0     0  0
 96 97  1  0     0  0
 97 98  2  0     0  0
 93 98  1  0     0  0
 97 99  1  0     0  0
 96100  1  0     0  0
 95101  1  0     0  0
 75 76  1  0     0  0
 76 77  1  0     0  0
 77 78  2  0     0  0
 78 79  1  0     0  0
 79 80  1  0     0  0
 76 80  1  0     0  0
 80 81  2  0     0  0
 79 82  1  0     0  0
 82 83  2  0     0  0
 83 84  1  0     0  0
 84 85  2  0     0  0
 85 86  1  0     0  0
 86 87  2  0     0  0
 82 87  1  0     0  0
 85 91  1  0     0  0
 91 90  1  0     0  0
 90 89  2  0     0  0
 86 89  1  0     0  0
 87 88  1  0     0  0
 91 92  1  0     0  0
 69102  1  6     0  0
 68103  1  0     0  0
103104  1  0     0  0
103131  2  0     0  0
104105  2  0     0  0
105106  1  0     0  0
106107  1  0     0  0
107108  1  0     0  0
104108  1  0     0  0
106122  2  0     0  0
122121  1  0     0  0
121120  2  0     0  0
120119  1  0     0  0
107119  2  0     0  0
123121  1  1     0  0
123124  1  0     0  0
124125  1  0     0  0
125126  1  0     0  0
126127  1  0     0  0
127128  1  0     0  0
123128  1  0     0  0
125129  1  1     0  0
125130  1  6     0  0
109108  1  6     0  0
111110  1  0     0  0
110109  1  0     0  0
109111  1  0     0  0
110112  1  1     0  0
109113  1  1     0  0
113114  1  0     0  0
114115  1  0     0  0
115116  1  0     0  0
116117  1  0     0  0
113117  2  0     0  0
115118  2  0     0  0
M  CHG  3  61  -1  66   2 114  -1
M  STY  1   1 MUL
M  SLB  1   1   1
M  SCN  1   1 HT 
M  SAL   1 15   1   2   3   4   5   6   7   8   9  10  11  12  13  14  15
M  SAL   1 15  16  17  18  19  20  21  22  23  24  25  26  27  28  29  30
M  SAL   1 15  31  32  33  34  35  36  37  38  39  40  41  42  43  44  45
M  SAL   1 15  46  47  48  49  50  51  52  53  54  55  56  57  58  59  60
M  SAL   1 15  61  62  63  64  65  67  68  69  70  71  72  73  74  75  76
M  SAL   1 15  77  78  79  80  81  82  83  84  85  86  87  88  89  90  91
M  SAL   1 15  92  93  94  95  96  97  98  99 100 101 102 103 104 105 106
M  SAL   1 15 107 108 109 110 111 112 113 114 115 116 117 118 119 120 121
M  SAL   1 10 122 123 124 125 126 127 128 129 130 131
M  SPA   1 15   1   2   3   4   5   6   9   8   7  19  20  21  22  23  24
M  SPA   1 15  25  26  27  28  29  30  34  33  32  31  35  10  11  12  13
M  SPA   1 15  14  15  16  17  18  36  37  38  40  41  42  43  56  58  57
M  SPA   1 15  59  60  61  62  63  64  65  47  46  45  44  48  49  50  51
M  SPA   1  5  52  53  54  55  39
M  SDI   1  4    5.8100  -25.5500    5.8100   -8.4000
M  SDI   1  4   29.4700   -8.4000   29.4700  -25.5500
M  SMT   1 2
M  END
