 
 
 
 55 61  0  0  1  0  0  0  0  0999 V2000
    7.6300  -13.4400    0.0000 C   0  0  0  0  0  0  0  0  0  0  0  0
    7.6300  -14.8400    0.0000 C   0  0  0  0  0  0  0  0  0  0  0  0
    8.8200  -15.5400    0.0000 C   0  0  0  0  0  0  0  0  0  0  0  0
   10.0800  -14.8400    0.0000 C   0  0  0  0  0  0  0  0  0  0  0  0
   10.0800  -13.4400    0.0000 C   0  0  0  0  0  0  0  0  0  0  0  0
    8.8200  -12.7400    0.0000 C   0  0  0  0  0  0  0  0  0  0  0  0
    6.4400  -15.5400    0.0000 C   0  0  0  0  0  0  0  0  0  0  0  0
   11.2700  -12.7400    0.0000 C   0  0  0  0  0  0  0  0  0  0  0  0
    5.2500  -14.8400    0.0000 O   0  0  0  0  0  0  0  0  0  0  0  0
    6.4400  -16.9400    0.0000 O   0  0  0  0  0  0  0  0  0  0  0  0
    6.4400  -14.1400    0.0000 C   0  0  0  0  0  0  0  0  0  0  0  0
    6.4400  -12.7400    0.0000 F   0  0  0  0  0  0  0  0  0  0  0  0
   12.4600  -13.4400    0.0000 C   0  0  0  0  0  0  0  0  0  0  0  0
   13.7200  -12.7400    0.0000 C   0  0  0  0  0  0  0  0  0  0  0  0
   13.7200  -11.3400    0.0000 C   0  0  0  0  0  0  0  0  0  0  0  0
   12.5300  -10.6400    0.0000 C   0  0  0  0  0  0  0  0  0  0  0  0
   11.2700  -11.3400    0.0000 C   0  0  0  0  0  0  0  0  0  0  0  0
   14.9100  -13.4400    0.0000 C   0  0  0  0  0  0  0  0  0  0  0  0
   16.1000  -12.7400    0.0000 C   0  0  0  0  0  0  0  0  0  0  0  0
   16.1000  -11.3400    0.0000 C   0  0  0  0  0  0  0  0  0  0  0  0
   14.9100  -10.6400    0.0000 C   0  0  0  0  0  0  0  0  0  0  0  0
   17.3600  -10.6400    0.0000 C   0  0  0  0  0  0  0  0  0  0  0  0
   17.3600   -9.2400    0.0000 C   0  0  0  0  0  0  0  0  0  0  0  0
   16.1000   -8.5400    0.0000 C   0  0  0  0  0  0  0  0  0  0  0  0
   14.9100   -9.2400    0.0000 C   0  0  0  0  0  0  0  0  0  0  0  0
   18.5500  -11.3400    0.0000 C   0  0  0  0  0  0  0  0  0  0  0  0
   19.7400  -10.6400    0.0000 C   0  0  0  0  0  0  0  0  0  0  0  0
   19.7400   -9.2400    0.0000 C   0  0  0  0  0  0  0  0  0  0  0  0
   18.5500   -8.5400    0.0000 C   0  0  0  0  0  0  0  0  0  0  0  0
   20.7900   -8.2600    0.0000 C   0  0  0  0  0  0  0  0  0  0  0  0
   20.2300   -7.0000    0.0000 C   0  0  0  0  0  0  0  0  0  0  0  0
   18.8300   -7.1400    0.0000 C   0  0  0  0  0  0  0  0  0  0  0  0
   17.9200   -6.0900    0.0000 C   0  0  0  0  0  0  0  0  0  0  0  0
   16.5200   -6.3700    0.0000 C   0  0  0  0  0  0  0  0  0  0  0  0
   18.3400   -4.7600    0.0000 C   0  0  0  0  0  0  0  0  0  0  0  0
   20.9300   -9.9400    0.0000 N   0  0  0  0  0  0  0  0  0  0  0  0
   22.1200   -9.2400    0.0000 C   0  0  0  0  0  0  0  0  0  0  0  0
   23.3100   -9.9400    0.0000 C   0  0  0  0  0  0  0  0  0  0  0  0
   24.5000   -9.2400    0.0000 N   0  0  0  0  0  0  0  0  0  0  0  0
   24.5000   -7.8400    0.0000 C   0  0  0  0  0  0  0  0  0  0  0  0
   25.6900   -9.9400    0.0000 C   0  0  0  0  0  0  0  0  0  0  0  0
   26.9500   -9.2400    0.0000 C   0  0  0  0  0  0  0  0  0  0  0  0
   26.9500   -7.8400    0.0000 S   0  0  0  0  0  0  0  0  0  0  0  0
   25.6900   -7.1400    0.0000 C   0  0  0  0  0  0  0  0  0  0  0  0
   26.9500   -6.4400    0.0000 O   0  0  0  0  0  0  0  0  0  0  0  0
   28.1624   -8.5400    0.0000 O   0  0  0  0  0  0  0  0  0  0  0  0
   17.3600   -7.8400    0.0000 H   0  0  0  0  0  0  0  0  0  0  0  0
   18.5500   -9.9400    0.0000 H   0  0  0  0  0  0  0  0  0  0  0  0
   17.3600  -12.0400    0.0000 C   0  0  0  0  0  0  0  0  0  0  0  0
   16.1000   -9.9400    0.0000 C   0  0  0  0  0  0  0  0  0  0  0  0
   13.7200   -9.9400    0.0000 C   0  0  0  0  0  0  0  0  0  0  0  0
   14.9100  -12.0400    0.0000 H   0  0  0  0  0  0  0  0  0  0  0  0
   13.7200  -14.1400    0.0000 H   0  0  0  0  0  0  0  0  0  0  0  0
   11.2476  -14.1400    0.0000 C   0  0  0  0  0  0  0  0  0  0  0  0
   12.4600  -14.8400    0.0000 C   0  0  0  0  0  0  0  0  0  0  0  0
  1  2  1  0     0  0
  2  3  1  0     0  0
  3  4  1  0     0  0
  4  5  1  0     0  0
  5  6  2  0     0  0
  1  6  1  0     0  0
  2  7  1  6     0  0
  5  8  1  0     0  0
  7  9  2  0     0  0
  7 10  1  0     0  0
  2 11  1  1     0  0
 11 12  1  0     0  0
  8 13  1  0     0  0
 13 14  1  0     0  0
 14 15  1  0     0  0
 15 16  1  0     0  0
 16 17  1  0     0  0
  8 17  2  0     0  0
 14 18  1  0     0  0
 18 19  1  0     0  0
 19 20  1  0     0  0
 20 21  1  0     0  0
 15 21  1  0     0  0
 20 22  1  0     0  0
 22 23  1  0     0  0
 23 24  1  0     0  0
 24 25  1  0     0  0
 21 25  1  0     0  0
 22 26  1  0     0  0
 26 27  1  0     0  0
 27 28  1  0     0  0
 23 29  1  0     0  0
 28 29  1  0     0  0
 28 30  1  0     0  0
 30 31  1  0     0  0
 31 32  1  0     0  0
 29 32  1  0     0  0
 32 33  1  6     0  0
 33 34  2  0     0  0
 33 35  1  0     0  0
 28 36  1  1     0  0
 36 37  1  0     0  0
 37 38  1  0     0  0
 38 39  1  0     0  0
 40 39  1  0     0  0
 39 41  1  0     0  0
 41 42  1  0     0  0
 42 43  1  0     0  0
 43 44  1  0     0  0
 40 44  1  0     0  0
 43 45  2  0     0  0
 43 46  2  0     0  0
 23 47  1  1     0  0
 29 48  1  6     0  0
 22 49  1  6     0  0
 20 50  1  1     0  0
 15 51  1  1     0  0
 21 52  1  6     0  0
 14 53  1  6     0  0
 13 54  1  6     0  0
 13 55  1  1     0  0
M  END
