 
 
 
 21 22  0  0  1  0  0  0  0  0999 V2000
   16.3100  -14.2100    0.0000 C   0  0  0  0  0  0  0  0  0  0  0  0
   17.2900  -13.1600    0.0000 C   0  0  0  0  0  0  0  0  0  0  0  0
   17.2900  -15.1900    0.0000 C   0  0  0  0  0  0  0  0  0  0  0  0
   18.2700  -14.2100    0.0000 N   0  0  0  0  0  0  0  0  0  0  0  0
   19.6700  -14.2100    0.0000 C   0  0  0  0  0  0  0  0  0  0  0  0
   20.3700  -15.4000    0.0000 C   0  0  0  0  0  0  0  0  0  0  0  0
   17.2900  -16.5900    0.0000 O   0  0  0  0  0  0  0  0  0  0  0  0
   20.3700  -13.0200    0.0000 C   0  0  0  0  0  0  0  0  0  0  0  0
   21.7700  -13.0200    0.0000 N   0  0  0  0  0  0  0  0  0  0  0  0
   19.6700  -11.7600    0.0000 O   0  0  0  0  0  0  0  0  0  0  0  0
   21.7700  -15.4000    0.0000 C   0  0  0  0  0  0  0  0  0  0  0  0
   19.6700  -16.5900    0.0000 O   0  0  0  0  0  0  0  0  0  0  0  0
   14.1400  -13.5100    0.0000 C   0  0  0  0  0  0  0  0  0  0  0  0
   14.1400  -14.9100    0.0000 C   0  0  0  0  0  0  0  0  0  0  0  0
   15.4700  -15.3300    0.0000 C   0  0  0  0  0  0  0  0  0  0  0  0
   15.4700  -13.0900    0.0000 N   0  0  0  0  0  0  0  0  0  0  0  0
   15.8980  -11.7570    0.0000 C   0  0  0  0  0  0  0  0  0  0  0  0
   17.2581  -11.4630    0.0000 O   0  0  0  0  0  0  0  0  0  0  0  0
   14.9555  -10.7175    0.0000 C   0  0  0  0  0  0  0  0  0  0  0  0
   13.6121  -11.0079    0.0000 C   0  0  0  0  0  0  0  0  0  0  0  0
   15.3878   -9.3707    0.0000 C   0  0  0  0  0  0  0  0  0  0  0  0
  1  2  1  6     0  0
  1  3  1  1     0  0
  3  4  1  0     0  0
  2  4  1  0     0  0
  4  5  1  0     0  0
  5  6  1  0     0  0
  3  7  2  0     0  0
  5  8  1  6     0  0
  8  9  1  0     0  0
  8 10  2  0     0  0
  6 11  1  0     0  0
  6 12  1  1     0  0
 13 14  1  0     0  0
 14 15  1  0     0  0
 15  1  1  0     0  0
  1 16  1  0     0  0
 13 16  1  0     0  0
 16 17  1  0     0  0
 17 18  2  0     0  0
 17 19  1  0     0  0
 19 20  1  0     0  0
 19 21  1  0     0  0
M  END
