 
 
 
 38 44  0  0  1  0  0  0  0  0999 V2000
    5.6000  -10.7100    0.0000 O   0  0  0  0  0  0  0  0  0  0  0  0
    5.6000  -12.1100    0.0000 C   0  0  0  0  0  0  0  0  0  0  0  0
    6.7900  -12.8100    0.0000 C   0  0  0  0  0  0  0  0  0  0  0  0
    8.0500  -12.1100    0.0000 C   0  0  0  0  0  0  0  0  0  0  0  0
    8.0500  -10.7100    0.0000 C   0  0  0  0  0  0  0  0  0  0  0  0
    6.7900  -10.0100    0.0000 C   0  0  0  0  0  0  0  0  0  0  0  0
    9.2400  -12.8100    0.0000 N   0  0  0  0  0  0  0  0  0  0  0  0
    9.3800  -14.2100    0.0000 C   0  0  0  0  0  0  0  0  0  0  0  0
   10.7100  -14.4900    0.0000 C   0  0  0  0  0  0  0  0  0  0  0  0
   11.4800  -13.3000    0.0000 C   0  0  0  0  0  0  0  0  0  0  0  0
   10.5000  -12.2500    0.0000 C   0  0  0  0  0  0  0  0  0  0  0  0
   12.1800  -14.4900    0.0000 C   0  0  0  0  0  0  0  0  0  0  0  0
   12.6700  -11.2000    0.0000 C   0  0  0  0  0  0  0  0  0  0  0  0
   12.6700  -12.6000    0.0000 C   0  0  0  0  0  0  0  0  0  0  0  0
   13.8600  -13.3000    0.0000 C   0  0  0  0  0  0  0  0  0  0  0  0
   15.1200  -12.6000    0.0000 C   0  0  0  0  0  0  0  0  0  0  0  0
   15.1200  -11.2000    0.0000 C   0  0  0  0  0  0  0  0  0  0  0  0
   13.8600  -10.5000    0.0000 C   0  0  0  0  0  0  0  0  0  0  0  0
   10.3477  -15.8423    0.0000 H   0  0  0  0  0  0  0  0  0  0  0  0
   16.3266  -10.4900    0.0000 C   0  0  0  0  0  0  0  0  0  0  0  0
   17.5363  -11.1753    0.0000 C   0  0  0  0  0  0  0  0  0  0  0  0
   18.7430  -10.4655    0.0000 C   0  0  0  0  0  0  0  0  0  0  0  0
   18.7316   -9.0655    0.0000 C   0  0  0  0  0  0  0  0  0  0  0  0
   17.5219   -8.3802    0.0000 N   0  0  0  0  0  0  0  0  0  0  0  0
   16.3152   -9.0901    0.0000 C   0  0  0  0  0  0  0  0  0  0  0  0
   19.9436   -8.3523    0.0000 N   0  0  0  0  0  0  0  0  0  0  0  0
   19.9889  -11.1707    0.0000 C   0  0  0  0  0  0  0  0  0  0  0  0
   21.2049  -10.4544    0.0000 O   0  0  0  0  0  0  0  0  0  0  0  0
   20.0006  -12.5999    0.0000 N   0  0  0  0  0  0  0  0  0  0  0  0
   21.2334  -13.2984    0.0000 C   0  0  0  0  0  0  0  0  0  0  0  0
   21.2447  -14.6996    0.0000 C   0  0  0  0  0  0  0  0  0  0  0  0
   22.4628  -15.3897    0.0000 C   0  0  0  0  0  0  0  0  0  0  0  0
   23.6695  -14.6799    0.0000 C   0  0  0  0  0  0  0  0  0  0  0  0
   23.6582  -13.2787    0.0000 C   0  0  0  0  0  0  0  0  0  0  0  0
   22.4401  -12.5886    0.0000 C   0  0  0  0  0  0  0  0  0  0  0  0
   24.8889  -15.3707    0.0000 O   0  0  0  0  0  0  0  0  0  0  0  0
   21.9334  -14.5108    0.0000 C   0  0  0  0  0  0  0  0  0  0  0  0
   22.9695  -13.4675    0.0000 C   0  0  0  0  0  0  0  0  0  0  0  0
  1  2  1  0     0  0
  2  3  1  0     0  0
  3  4  1  0     0  0
  4  5  1  0     0  0
  5  6  1  0     0  0
  1  6  1  0     0  0
  4  7  1  0     0  0
  7  8  1  0     0  0
  8  9  1  0     0  0
  9 10  1  0     0  0
 10 11  1  0     0  0
  7 11  1  0     0  0
  9 12  1  0     0  0
 12 10  1  0     0  0
 13 14  2  0     0  0
 14 15  1  0     0  0
 15 16  2  0     0  0
 16 17  1  0     0  0
 17 18  2  0     0  0
 13 18  1  0     0  0
 10 14  1  1     0  0
  9 19  1  1     0  0
 17 20  1  0     0  0
 20 21  2  0     0  0
 21 22  1  0     0  0
 22 23  2  0     0  0
 23 24  1  0     0  0
 24 25  2  0     0  0
 20 25  1  0     0  0
 23 26  1  0     0  0
 22 27  1  0     0  0
 27 28  2  0     0  0
 27 29  1  0     0  0
 29 30  1  0     0  0
 30 31  1  0     0  0
 31 32  1  0     0  0
 32 33  1  0     0  0
 33 34  1  0     0  0
 34 35  1  0     0  0
 30 35  1  0     0  0
 33 36  1  0     0  0
 30 37  1  0     0  0
 33 38  1  0     0  0
 38 37  1  0     0  0
M  END
