 
 
 
 73 78  0  0  1  0  0  0  0  0999 V2000
   10.7128  -16.2443    0.0000 N   0  0  0  0  0  0  0  0  0  0  0  0
   10.0827  -17.5046    0.0000 C   0  0  0  0  0  0  0  0  0  0  0  0
   10.7128  -18.6249    0.0000 N   0  0  0  0  0  0  0  0  0  0  0  0
   12.1832  -18.6249    0.0000 C   0  0  0  0  0  0  0  0  0  0  0  0
   12.8134  -17.4346    0.0000 C   0  0  0  0  0  0  0  0  0  0  0  0
   12.1132  -16.2443    0.0000 C   0  0  0  0  0  0  0  0  0  0  0  0
   12.8834  -19.8852    0.0000 N   0  0  0  0  0  0  0  0  0  0  0  0
   14.2838  -19.8852    0.0000 C   0  0  0  0  0  0  0  0  0  0  0  0
   14.9139  -18.5549    0.0000 C   0  0  0  0  0  0  0  0  0  0  0  0
   14.2138  -17.4346    0.0000 N   0  0  0  0  0  0  0  0  0  0  0  0
   16.2443  -18.3448    0.0000 C   0  0  0  0  0  0  0  0  0  0  0  0
   16.4543  -16.8044    0.0000 N   0  0  0  0  0  0  0  0  0  0  0  0
   15.1240  -16.3143    0.0000 C   0  0  0  0  0  0  0  0  0  0  0  0
   12.7434  -14.9840    0.0000 O   0  0  0  0  0  0  0  0  0  0  0  0
    8.6823  -17.5046    0.0000 N   0  0  0  0  0  0  0  0  0  0  0  0
   17.7147  -16.1043    0.0000 C   0  0  0  0  0  0  0  0  0  0  0  0
   18.9050  -16.8745    0.0000 C   0  0  0  0  0  0  0  0  0  0  0  0
   20.0953  -16.1743    0.0000 C   0  0  0  0  0  0  0  0  0  0  0  0
   20.0953  -14.7739    0.0000 C   0  0  0  0  0  0  0  0  0  0  0  0
   18.9050  -14.0737    0.0000 C   0  0  0  0  0  0  0  0  0  0  0  0
   17.7147  -14.7039    0.0000 C   0  0  0  0  0  0  0  0  0  0  0  0
   21.3556  -14.0737    0.0000 C   0  0  0  0  0  0  0  0  0  0  0  0
   22.5460  -14.8439    0.0000 N   0  0  0  0  0  0  0  0  0  0  0  0
   21.3556  -12.6733    0.0000 O   0  0  0  0  0  0  0  0  0  0  0  0
   23.7363  -14.1437    0.0000 C   0  0  0  0  0  0  0  0  0  0  0  0
   24.9266  -14.8439    0.0000 C   0  0  0  0  0  0  0  0  0  0  0  0
   26.1869  -14.2138    0.0000 C   0  0  0  0  0  0  0  0  0  0  0  0
   23.8063  -12.7434    0.0000 C   0  0  0  0  0  0  0  0  0  0  0  0
   24.9966  -12.0432    0.0000 O   0  0  0  0  0  0  0  0  0  0  0  0
   22.6160  -12.0432    0.0000 O   0  0  0  0  0  0  0  0  0  0  0  0
   27.3072  -14.9139    0.0000 C   0  0  0  0  0  0  0  0  0  0  0  0
   28.5675  -14.2138    0.0000 O   0  0  0  0  0  0  0  0  0  0  0  0
   27.3072  -16.2443    0.0000 O   0  0  0  0  0  0  0  0  0  0  0  0
   15.6141  -19.8152    0.0000 H   0  0  0  0  0  0  0  0  0  0  0  0
   33.6000  -16.5200    0.0000 S   0  0  0  0  0  0  0  0  0  0  0  0
   33.6000  -15.1200    0.0000 O   0  0  0  0  0  0  0  0  0  0  0  0
   33.6000  -17.9200    0.0000 O   0  0  0  0  0  0  0  0  0  0  0  0
   32.2000  -16.5200    0.0000 O   0  0  0  0  0  0  0  0  0  0  0  0
   35.0000  -16.5200    0.0000 O   0  0  0  0  0  0  0  0  0  0  0  0
   10.7128  -16.2443    0.0000 N   0  0  0  0  0  0  0  0  0  0  0  0
   10.0827  -17.5046    0.0000 C   0  0  0  0  0  0  0  0  0  0  0  0
   10.7128  -18.6249    0.0000 N   0  0  0  0  0  0  0  0  0  0  0  0
   12.1832  -18.6249    0.0000 C   0  0  0  0  0  0  0  0  0  0  0  0
   12.8134  -17.4346    0.0000 C   0  0  0  0  0  0  0  0  0  0  0  0
   12.1132  -16.2443    0.0000 C   0  0  0  0  0  0  0  0  0  0  0  0
   12.7434  -14.9840    0.0000 O   0  0  0  0  0  0  0  0  0  0  0  0
   14.2138  -17.4346    0.0000 N   0  0  0  0  0  0  0  0  0  0  0  0
   14.9139  -18.5549    0.0000 C   0  0  0  0  0  0  0  0  0  0  0  0
   14.2838  -19.8852    0.0000 C   0  0  0  0  0  0  0  0  0  0  0  0
   12.8834  -19.8852    0.0000 N   0  0  0  0  0  0  0  0  0  0  0  0
   16.2443  -18.3448    0.0000 C   0  0  0  0  0  0  0  0  0  0  0  0
   16.4543  -16.8044    0.0000 N   0  0  0  0  0  0  0  0  0  0  0  0
   15.1240  -16.3143    0.0000 C   0  0  0  0  0  0  0  0  0  0  0  0
   17.7147  -16.1043    0.0000 C   0  0  0  0  0  0  0  0  0  0  0  0
   18.9050  -16.8745    0.0000 C   0  0  0  0  0  0  0  0  0  0  0  0
   20.0953  -16.1743    0.0000 C   0  0  0  0  0  0  0  0  0  0  0  0
   20.0953  -14.7739    0.0000 C   0  0  0  0  0  0  0  0  0  0  0  0
   18.9050  -14.0737    0.0000 C   0  0  0  0  0  0  0  0  0  0  0  0
   17.7147  -14.7039    0.0000 C   0  0  0  0  0  0  0  0  0  0  0  0
   21.3556  -14.0737    0.0000 C   0  0  0  0  0  0  0  0  0  0  0  0
   22.5460  -14.8439    0.0000 N   0  0  0  0  0  0  0  0  0  0  0  0
   23.7363  -14.1437    0.0000 C   0  0  0  0  0  0  0  0  0  0  0  0
   24.9266  -14.8439    0.0000 C   0  0  0  0  0  0  0  0  0  0  0  0
   26.1869  -14.2138    0.0000 C   0  0  0  0  0  0  0  0  0  0  0  0
   27.3072  -14.9139    0.0000 C   0  0  0  0  0  0  0  0  0  0  0  0
   28.5675  -14.2138    0.0000 O   0  0  0  0  0  0  0  0  0  0  0  0
   27.3072  -16.2443    0.0000 O   0  0  0  0  0  0  0  0  0  0  0  0
   23.8063  -12.7434    0.0000 C   0  0  0  0  0  0  0  0  0  0  0  0
   24.9966  -12.0432    0.0000 O   0  0  0  0  0  0  0  0  0  0  0  0
   22.6160  -12.0432    0.0000 O   0  0  0  0  0  0  0  0  0  0  0  0
   21.3556  -12.6733    0.0000 O   0  0  0  0  0  0  0  0  0  0  0  0
   15.6141  -19.8152    0.0000 H   0  0  0  0  0  0  0  0  0  0  0  0
    8.6823  -17.5046    0.0000 N   0  0  0  0  0  0  0  0  0  0  0  0
 35 36  2  0     0  0
 35 37  2  0     0  0
 35 38  1  0     0  0
 35 39  1  0     0  0
  1  2  2  0     0  0
  2  3  1  0     0  0
  3  4  1  0     0  0
  4  5  2  0     0  0
  5  6  1  0     0  0
  1  6  1  0     0  0
  4  7  1  0     0  0
  7  8  1  0     0  0
  8  9  1  0     0  0
  9 10  1  0     0  0
  5 10  1  0     0  0
  9 11  1  0     0  0
 11 12  1  0     0  0
 12 13  1  0     0  0
 10 13  1  0     0  0
  6 14  2  0     0  0
  2 15  1  0     0  0
 12 16  1  0     0  0
 16 17  2  0     0  0
 17 18  1  0     0  0
 18 19  2  0     0  0
 19 20  1  0     0  0
 20 21  2  0     0  0
 16 21  1  0     0  0
 19 22  1  0     0  0
 22 23  1  0     0  0
 22 24  2  0     0  0
 23 25  1  0     0  0
 25 26  1  0     0  0
 26 27  1  0     0  0
 25 28  1  6     0  0
 28 29  1  0     0  0
 28 30  2  0     0  0
 27 31  1  0     0  0
 31 32  1  0     0  0
 31 33  2  0     0  0
  9 34  1  6     0  0
 40 41  2  0     0  0
 41 42  1  0     0  0
 42 43  1  0     0  0
 43 44  2  0     0  0
 44 45  1  0     0  0
 40 45  1  0     0  0
 43 50  1  0     0  0
 50 49  1  0     0  0
 49 48  1  0     0  0
 48 47  1  0     0  0
 44 47  1  0     0  0
 48 51  1  0     0  0
 51 52  1  0     0  0
 52 53  1  0     0  0
 47 53  1  0     0  0
 45 46  2  0     0  0
 41 73  1  0     0  0
 52 54  1  0     0  0
 54 55  2  0     0  0
 55 56  1  0     0  0
 56 57  2  0     0  0
 57 58  1  0     0  0
 58 59  2  0     0  0
 54 59  1  0     0  0
 57 60  1  0     0  0
 60 61  1  0     0  0
 60 71  2  0     0  0
 61 62  1  0     0  0
 62 63  1  0     0  0
 63 64  1  0     0  0
 62 68  1  6     0  0
 68 69  1  0     0  0
 68 70  2  0     0  0
 64 65  1  0     0  0
 65 66  1  0     0  0
 65 67  2  0     0  0
 48 72  1  6     0  0
M  STY  1   1 MUL
M  SLB  1   1   1
M  SCN  1   1 HT 
M  SAL   1 15   1   2   3   4   5   6   7   8   9  10  11  12  13  14  15
M  SAL   1 15  16  17  18  19  20  21  22  23  24  25  26  27  28  29  30
M  SAL   1 15  31  32  33  34  40  41  42  43  44  45  46  47  48  49  50
M  SAL   1 15  51  52  53  54  55  56  57  58  59  60  61  62  63  64  65
M  SAL   1  8  66  67  68  69  70  71  72  73
M  SPA   1 15   1   2   3   4   5   6  14  10   9   8   7  11  12  13  16
M  SPA   1 15  17  18  19  20  21  22  23  25  26  27  31  32  33  28  29
M  SPA   1  4  30  24  34  15
M  SDI   1  4    6.8600  -21.1400    6.8600  -11.5500
M  SDI   1  4   30.0300  -11.5500   30.0300  -21.1400
M  SMT   1 2
M  END
