 
 
 
 25 28  0  0  1  0  0  0  0  0999 V2000
    7.4200  -16.8700    0.0000 C   0  0  0  0  0  0  0  0  0  0  0  0
    7.4200  -18.2700    0.0000 C   0  0  0  0  0  0  0  0  0  0  0  0
    8.6324  -18.9700    0.0000 C   0  0  0  0  0  0  0  0  0  0  0  0
    9.8449  -18.2700    0.0000 C   0  0  0  0  0  0  0  0  0  0  0  0
    9.8449  -16.8700    0.0000 C   0  0  0  0  0  0  0  0  0  0  0  0
    8.6324  -16.1700    0.0000 C   0  0  0  0  0  0  0  0  0  0  0  0
   11.0573  -18.9700    0.0000 C   0  0  0  0  0  0  0  0  0  0  0  0
   12.2697  -18.2700    0.0000 C   0  0  0  0  0  0  0  0  0  0  0  0
   12.2697  -16.8700    0.0000 C   0  0  0  0  0  0  0  0  0  0  0  0
   11.0573  -16.1700    0.0000 C   0  0  0  0  0  0  0  0  0  0  0  0
   13.4822  -16.1700    0.0000 C   0  0  0  0  0  0  0  0  0  0  0  0
   13.4822  -14.7700    0.0000 C   0  0  0  0  0  0  0  0  0  0  0  0
   12.2697  -14.0700    0.0000 C   0  0  0  0  0  0  0  0  0  0  0  0
   11.0573  -14.7700    0.0000 C   0  0  0  0  0  0  0  0  0  0  0  0
   15.9070  -16.1700    0.0000 C   0  0  0  0  0  0  0  0  0  0  0  0
   15.9070  -14.7700    0.0000 C   0  0  0  0  0  0  0  0  0  0  0  0
   14.6946  -14.0700    0.0000 C   0  0  0  0  0  0  0  0  0  0  0  0
   14.6946  -12.6700    0.0000 C   0  0  0  0  0  0  0  0  0  0  0  0
   14.6946  -11.2700    0.0000 C   0  0  0  0  0  0  0  0  0  0  0  0
   13.4822  -13.3700    0.0000 C   0  0  0  0  0  0  0  0  0  0  0  0
   13.4822  -17.5700    0.0000 H   0  0  0  0  0  0  0  0  0  0  0  0
   12.2697  -15.4700    0.0000 H   0  0  0  0  0  0  0  0  0  0  0  0
   11.0573  -17.5700    0.0000 H   0  0  0  0  0  0  0  0  0  0  0  0
    9.8449  -15.4700    0.0000 C   0  0  0  0  0  0  0  0  0  0  0  0
    6.2076  -18.9700    0.0000 O   0  0  0  0  0  0  0  0  0  0  0  0
  1  2  1  0     0  0
  2  3  1  0     0  0
  3  4  2  0     0  0
  4  5  1  0     0  0
  5  6  1  0     0  0
  1  6  1  0     0  0
  4  7  1  0     0  0
  7  8  1  0     0  0
  8  9  1  0     0  0
  9 10  1  0     0  0
  5 10  1  0     0  0
  9 11  1  0     0  0
 11 12  1  0     0  0
 12 13  1  0     0  0
 13 14  1  0     0  0
 10 14  1  0     0  0
 11 15  1  0     0  0
 15 16  1  0     0  0
 16 17  1  0     0  0
 12 17  1  0     0  0
 17 18  1  1     0  0
 18 19  3  0     0  0
 12 20  1  1     0  0
 11 21  1  6     0  0
  9 22  1  1     0  0
 10 23  1  6     0  0
  5 24  1  1     0  0
  2 25  2  0     0  0
M  END
