 
 
 
 41 43  0  0  1  0  0  0  0  0999 V2000
   18.3322  -17.4925    0.0000 C   0  0  0  0  0  0  0  0  0  0  0  0
   18.3322  -16.0931    0.0000 C   0  0  0  0  0  0  0  0  0  0  0  0
   17.1427  -15.3934    0.0000 C   0  0  0  0  0  0  0  0  0  0  0  0
   15.8832  -16.0931    0.0000 C   0  0  0  0  0  0  0  0  0  0  0  0
   15.8832  -17.4925    0.0000 C   0  0  0  0  0  0  0  0  0  0  0  0
   17.1427  -18.1922    0.0000 C   0  0  0  0  0  0  0  0  0  0  0  0
   14.6937  -15.3934    0.0000 F   0  0  0  0  0  0  0  0  0  0  0  0
   19.5217  -18.1922    0.0000 F   0  0  0  0  0  0  0  0  0  0  0  0
   14.6937  -18.1922    0.0000 C   0  0  0  0  0  0  0  0  0  0  0  0
   13.5042  -17.4925    0.0000 N   0  0  0  0  0  0  0  0  0  0  0  0
   14.6937  -19.5916    0.0000 O   0  0  0  0  0  0  0  0  0  0  0  0
   12.3147  -18.1922    0.0000 C   0  0  0  0  0  0  0  0  0  0  0  0
   11.1253  -17.4925    0.0000 C   0  0  0  0  0  0  0  0  0  0  0  0
   12.3147  -19.5916    0.0000 C   0  0  0  0  0  0  0  0  0  0  0  0
    9.8658  -16.7928    0.0000 F   0  0  0  0  0  0  0  0  0  0  0  0
   11.8250  -16.3030    0.0000 F   0  0  0  0  0  0  0  0  0  0  0  0
   10.4256  -18.6820    0.0000 F   0  0  0  0  0  0  0  0  0  0  0  0
   19.5217  -15.3934    0.0000 N   0  0  0  0  0  0  0  0  0  0  0  0
   20.8511  -15.7433    0.0000 C   0  0  0  0  0  0  0  0  0  0  0  0
   21.2010  -14.4139    0.0000 C   0  0  0  0  0  0  0  0  0  0  0  0
   19.8715  -14.0640    0.0000 C   0  0  0  0  0  0  0  0  0  0  0  0
   21.6208  -13.0844    0.0000 C   0  0  0  0  0  0  0  0  0  0  0  0
   22.9502  -12.6646    0.0000 C   0  0  0  0  0  0  0  0  0  0  0  0
   24.3496  -12.3147    0.0000 N   0  0  0  0  0  0  0  0  0  0  0  0
   22.5304  -14.7637    0.0000 N   0  0  0  0  0  0  0  0  0  0  0  0
   23.0202  -16.1631    0.0000 C   0  0  0  0  0  0  0  0  0  0  0  0
   24.4196  -16.0931    0.0000 C   0  0  0  0  0  0  0  0  0  0  0  0
   24.8394  -14.7637    0.0000 C   0  0  0  0  0  0  0  0  0  0  0  0
   23.6499  -13.9241    0.0000 N   0  0  0  0  0  0  0  0  0  0  0  0
   25.2592  -17.2826    0.0000 C   0  0  0  0  0  0  0  0  0  0  0  0
   24.8394  -18.6121    0.0000 C   0  0  0  0  0  0  0  0  0  0  0  0
   26.0289  -19.4517    0.0000 N   0  0  0  0  0  0  0  0  0  0  0  0
   27.1484  -18.5421    0.0000 N   0  0  0  0  0  0  0  0  0  0  0  0
   26.6586  -17.2127    0.0000 C   0  0  0  0  0  0  0  0  0  0  0  0
   27.4283  -16.1631    0.0000 C   0  0  0  0  0  0  0  0  0  0  0  0
   23.5100  -19.0319    0.0000 C   0  0  0  0  0  0  0  0  0  0  0  0
   32.0600  -16.1700    0.0000 P   0  0  0  0  0  0  0  0  0  0  0  0
   30.6600  -16.1700    0.0000 O   0  0  0  0  0  0  0  0  0  0  0  0
   33.4600  -16.1700    0.0000 O   0  0  0  0  0  0  0  0  0  0  0  0
   32.0600  -17.5700    0.0000 O   0  0  0  0  0  0  0  0  0  0  0  0
   32.0600  -14.7700    0.0000 O   0  0  0  0  0  0  0  0  0  0  0  0
  1  2  2  0     0  0
  2  3  1  0     0  0
  3  4  2  0     0  0
  4  5  1  0     0  0
  5  6  2  0     0  0
  1  6  1  0     0  0
  4  7  1  0     0  0
  1  8  1  0     0  0
  5  9  1  0     0  0
  9 10  1  0     0  0
  9 11  2  0     0  0
 10 12  1  0     0  0
 12 13  1  0     0  0
 12 14  1  1     0  0
 13 15  1  0     0  0
 13 16  1  0     0  0
 13 17  1  0     0  0
  2 18  1  0     0  0
 18 19  1  0     0  0
 19 20  1  0     0  0
 20 21  1  0     0  0
 18 21  1  0     0  0
 20 22  1  0     0  0
 22 23  1  0     0  0
 23 24  3  0     0  0
 20 25  1  0     0  0
 25 26  1  0     0  0
 26 27  2  0     0  0
 27 28  1  0     0  0
 28 29  2  0     0  0
 25 29  1  0     0  0
 27 30  1  0     0  0
 30 31  2  0     0  0
 31 32  1  0     0  0
 32 33  1  0     0  0
 33 34  2  0     0  0
 30 34  1  0     0  0
 34 35  1  0     0  0
 31 36  1  0     0  0
 37 38  1  0     0  0
 37 39  1  0     0  0
 37 40  1  0     0  0
 37 41  2  0     0  0
M  END
