 
 
 
 28 30  0  0  1  0  0  0  0  0999 V2000
    9.1700  -13.9300    0.0000 C   0  0  0  0  0  0  0  0  0  0  0  0
    9.1700  -15.3300    0.0000 C   0  0  0  0  0  0  0  0  0  0  0  0
   10.3824  -16.0300    0.0000 C   0  0  0  0  0  0  0  0  0  0  0  0
   11.5949  -15.3300    0.0000 C   0  0  0  0  0  0  0  0  0  0  0  0
   11.5949  -13.9300    0.0000 C   0  0  0  0  0  0  0  0  0  0  0  0
   10.3824  -13.2300    0.0000 C   0  0  0  0  0  0  0  0  0  0  0  0
   12.8260  -13.2190    0.0000 C   0  0  0  0  0  0  0  0  0  0  0  0
   14.0312  -13.9147    0.0000 C   0  0  0  0  0  0  0  0  0  0  0  0
   15.2435  -13.2146    0.0000 C   0  0  0  0  0  0  0  0  0  0  0  0
   15.2435  -11.8146    0.0000 N   0  0  0  0  0  0  0  0  0  0  0  0
   14.0383  -11.1189    0.0000 C   0  0  0  0  0  0  0  0  0  0  0  0
   12.8259  -11.8190    0.0000 C   0  0  0  0  0  0  0  0  0  0  0  0
   16.4751  -13.9254    0.0000 N   0  0  0  0  0  0  0  0  0  0  0  0
   17.6665  -13.2372    0.0000 C   0  0  0  0  0  0  0  0  0  0  0  0
   18.8560  -13.9237    0.0000 C   0  0  0  0  0  0  0  0  0  0  0  0
   20.0684  -13.2236    0.0000 C   0  0  0  0  0  0  0  0  0  0  0  0
   20.0682  -11.8236    0.0000 C   0  0  0  0  0  0  0  0  0  0  0  0
   18.8787  -11.1370    0.0000 C   0  0  0  0  0  0  0  0  0  0  0  0
   17.6664  -11.8372    0.0000 N   0  0  0  0  0  0  0  0  0  0  0  0
   21.2999  -13.9344    0.0000 C   0  0  0  0  0  0  0  0  0  0  0  0
   22.4991  -13.2417    0.0000 S   0  0  0  0  0  0  0  0  0  0  0  0
   23.4891  -12.2518    0.0000 C   0  0  0  0  0  0  0  0  0  0  0  0
   21.5092  -12.2518    0.0000 N   0  0  0  0  0  0  0  0  0  0  0  0
   23.4891  -14.2317    0.0000 O   0  0  0  0  0  0  0  0  0  0  0  0
   11.6064  -11.1149    0.0000 F   0  0  0  0  0  0  0  0  0  0  0  0
   12.8260  -16.0410    0.0000 O   0  0  0  0  0  0  0  0  0  0  0  0
   14.0312  -15.3453    0.0000 C   0  0  0  0  0  0  0  0  0  0  0  0
    7.9576  -16.0300    0.0000 F   0  0  0  0  0  0  0  0  0  0  0  0
  1  2  2  0     0  0
  2  3  1  0     0  0
  3  4  2  0     0  0
  4  5  1  0     0  0
  5  6  2  0     0  0
  1  6  1  0     0  0
  5  7  1  0     0  0
  7  8  2  0     0  0
  8  9  1  0     0  0
  9 10  2  0     0  0
 10 11  1  0     0  0
 11 12  2  0     0  0
  7 12  1  0     0  0
  9 13  1  0     0  0
 13 14  1  0     0  0
 14 15  2  0     0  0
 15 16  1  0     0  0
 16 17  2  0     0  0
 17 18  1  0     0  0
 18 19  2  0     0  0
 14 19  1  0     0  0
 16 20  1  0     0  0
 21 20  1  6     0  0
 21 22  1  6     0  0
 21 23  2  0     0  0
 21 24  2  0     0  0
 12 25  1  0     0  0
  4 26  1  0     0  0
 26 27  1  0     0  0
  2 28  1  0     0  0
M  END
