 
 
 
 37 40  0  0  0  0  0  0  0  0999 V2000
   15.2553  -20.6463    0.0000 N   0  0  0  0  0  0  0  0  0  0  0  0
   15.6752  -21.9760    0.0000 N   0  0  0  0  0  0  0  0  0  0  0  0
   17.1448  -21.9760    0.0000 C   0  0  0  0  0  0  0  0  0  0  0  0
   17.5647  -20.6463    0.0000 C   0  0  0  0  0  0  0  0  0  0  0  0
   16.4450  -19.8065    0.0000 C   0  0  0  0  0  0  0  0  0  0  0  0
   18.7544  -19.9465    0.0000 C   0  0  0  0  0  0  0  0  0  0  0  0
   19.9441  -20.6463    0.0000 N   0  0  0  0  0  0  0  0  0  0  0  0
   18.7544  -18.5469    0.0000 O   0  0  0  0  0  0  0  0  0  0  0  0
   21.1338  -19.9465    0.0000 C   0  0  0  0  0  0  0  0  0  0  0  0
   22.3235  -20.6463    0.0000 C   0  0  0  0  0  0  0  0  0  0  0  0
   22.3235  -22.0460    0.0000 C   0  0  0  0  0  0  0  0  0  0  0  0
   23.5132  -22.7458    0.0000 C   0  0  0  0  0  0  0  0  0  0  0  0
   24.7729  -22.0460    0.0000 C   0  0  0  0  0  0  0  0  0  0  0  0
   24.7729  -20.6463    0.0000 C   0  0  0  0  0  0  0  0  0  0  0  0
   23.5832  -19.9465    0.0000 N   0  0  0  0  0  0  0  0  0  0  0  0
   21.1338  -22.7458    0.0000 F   0  0  0  0  0  0  0  0  0  0  0  0
   23.5132  -24.1454    0.0000 O   0  0  0  0  0  0  0  0  0  0  0  0
   22.3235  -24.8453    0.0000 C   0  0  0  0  0  0  0  0  0  0  0  0
   16.4652  -18.4101    0.0000 C   0  0  0  0  0  0  0  0  0  0  0  0
   15.2518  -17.6860    0.0000 O   0  0  0  0  0  0  0  0  0  0  0  0
   14.0255  -18.3704    0.0000 C   0  0  0  0  0  0  0  0  0  0  0  0
   14.8474  -23.1055    0.0000 C   0  0  0  0  0  0  0  0  0  0  0  0
   13.4474  -23.1055    0.0000 C   0  0  0  0  0  0  0  0  0  0  0  0
   12.7432  -21.8857    0.0000 C   0  0  0  0  0  0  0  0  0  0  0  0
   11.3432  -21.8857    0.0000 C   0  0  0  0  0  0  0  0  0  0  0  0
   10.6432  -23.0981    0.0000 C   0  0  0  0  0  0  0  0  0  0  0  0
   11.3474  -24.3179    0.0000 C   0  0  0  0  0  0  0  0  0  0  0  0
   12.7474  -24.3179    0.0000 C   0  0  0  0  0  0  0  0  0  0  0  0
    9.2400  -23.0981    0.0000 C   0  0  0  0  0  0  0  0  0  0  0  0
    8.5392  -24.3119    0.0000 N   0  0  0  0  0  0  0  0  0  0  0  0
    7.1402  -24.3119    0.0000 C   0  0  0  0  0  0  0  0  0  0  0  0
    6.4401  -25.5243    0.0000 C   0  0  0  0  0  0  0  0  0  0  0  0
    7.1401  -26.7368    0.0000 C   0  0  0  0  0  0  0  0  0  0  0  0
    8.5391  -26.7368    0.0000 C   0  0  0  0  0  0  0  0  0  0  0  0
    9.2391  -25.5244    0.0000 C   0  0  0  0  0  0  0  0  0  0  0  0
    6.4306  -23.0831    0.0000 O   0  0  0  0  0  0  0  0  0  0  0  0
    9.2407  -27.9521    0.0000 F   0  0  0  0  0  0  0  0  0  0  0  0
  1  2  1  0     0  0
  3  4  2  0     0  0
  4  5  1  0     0  0
  1  5  2  0     0  0
  6  7  1  0     0  0
  6  4  1  0     0  0
  6  8  2  0     0  0
  7  9  1  0     0  0
  9 10  1  0     0  0
 10 11  2  0     0  0
 11 12  1  0     0  0
 12 13  2  0     0  0
 13 14  1  0     0  0
 14 15  2  0     0  0
 10 15  1  0     0  0
 11 16  1  0     0  0
 12 17  1  0     0  0
 17 18  1  0     0  0
  2  3  1  0     0  0
  5 19  1  0     0  0
 19 20  1  0     0  0
 20 21  1  0     0  0
  2 22  1  0     0  0
 22 23  1  0     0  0
 23 24  2  0     0  0
 24 25  1  0     0  0
 25 26  2  0     0  0
 26 27  1  0     0  0
 27 28  2  0     0  0
 23 28  1  0     0  0
 26 29  1  0     0  0
 29 30  1  0     0  0
 30 31  1  0     0  0
 31 32  1  0     0  0
 32 33  2  0     0  0
 33 34  1  0     0  0
 34 35  2  0     0  0
 30 35  1  0     0  0
 31 36  2  0     0  0
 34 37  1  0     0  0
M  END
