 
 
 
 26 29  0  0  1  0  0  0  0  0999 V2000
    9.2400  -15.6800    0.0000 N   0  0  0  0  0  0  0  0  0  0  0  0
    9.2400  -17.0800    0.0000 C   0  0  0  0  0  0  0  0  0  0  0  0
   10.4524  -17.7800    0.0000 N   0  0  0  0  0  0  0  0  0  0  0  0
   11.6649  -17.0800    0.0000 C   0  0  0  0  0  0  0  0  0  0  0  0
   11.6649  -15.6800    0.0000 C   0  0  0  0  0  0  0  0  0  0  0  0
   10.4524  -14.9800    0.0000 C   0  0  0  0  0  0  0  0  0  0  0  0
   12.9964  -17.5126    0.0000 N   0  0  0  0  0  0  0  0  0  0  0  0
   13.8193  -16.3800    0.0000 N   0  0  0  0  0  0  0  0  0  0  0  0
   12.9964  -15.2474    0.0000 N   0  0  0  0  0  0  0  0  0  0  0  0
   10.4524  -13.5802    0.0000 N   0  0  0  0  0  0  0  0  0  0  0  0
   11.5703  -12.7678    0.0000 C   0  0  0  0  0  0  0  0  0  0  0  0
   11.1431  -11.4536    0.0000 C   0  0  0  0  0  0  0  0  0  0  0  0
    9.7612  -11.4537    0.0000 C   0  0  0  0  0  0  0  0  0  0  0  0
    9.3343  -12.7681    0.0000 C   0  0  0  0  0  0  0  0  0  0  0  0
    8.0276  -17.7800    0.0000 C   0  0  0  0  0  0  0  0  0  0  0  0
    7.3276  -16.5676    0.0000 C   0  0  0  0  0  0  0  0  0  0  0  0
    8.7276  -18.9924    0.0000 C   0  0  0  0  0  0  0  0  0  0  0  0
    6.8151  -18.4800    0.0000 C   0  0  0  0  0  0  0  0  0  0  0  0
   13.4275  -18.8394    0.0000 C   0  0  0  0  0  0  0  0  0  0  0  0
   14.8069  -19.1326    0.0000 C   0  0  0  0  0  0  0  0  0  0  0  0
   15.3734  -20.4044    0.0000 N   0  0  0  0  0  0  0  0  0  0  0  0
   16.7581  -20.2586    0.0000 N   0  0  0  0  0  0  0  0  0  0  0  0
   17.0473  -18.8967    0.0000 N   0  0  0  0  0  0  0  0  0  0  0  0
   15.8415  -18.2008    0.0000 N   0  0  0  0  0  0  0  0  0  0  0  0
   15.6946  -16.8056    0.0000 C   0  0  0  0  0  0  0  0  0  0  0  0
    8.9401  -10.3241    0.0000 O   0  0  0  0  0  0  0  0  0  0  0  0
  1  2  2  0     0  0
  2  3  1  0     0  0
  3  4  2  0     0  0
  4  5  1  0     0  0
  5  6  2  0     0  0
  1  6  1  0     0  0
  4  7  1  0     0  0
  7  8  1  0     0  0
  8  9  2  0     0  0
  5  9  1  0     0  0
  6 10  1  0     0  0
 10 11  1  0     0  0
 11 12  1  0     0  0
 12 13  1  0     0  0
 13 14  1  0     0  0
 10 14  1  0     0  0
  2 15  1  0     0  0
 15 16  1  0     0  0
 15 17  1  0     0  0
 15 18  1  0     0  0
  7 19  1  0     0  0
 19 20  1  0     0  0
 20 21  2  0     0  0
 21 22  1  0     0  0
 22 23  2  0     0  0
 23 24  1  0     0  0
 20 24  1  0     0  0
 24 25  1  0     0  0
 13 26  1  1     0  0
M  END
