 
 
 
 23 26  0  0  1  0  0  0  0  0999 V2000
    8.7500  -16.8700    0.0000 C   0  0  0  0  0  0  0  0  0  0  0  0
    8.7500  -18.2700    0.0000 C   0  0  0  0  0  0  0  0  0  0  0  0
    9.9624  -18.9700    0.0000 C   0  0  0  0  0  0  0  0  0  0  0  0
   11.1749  -18.2700    0.0000 C   0  0  0  0  0  0  0  0  0  0  0  0
   11.1749  -16.8700    0.0000 C   0  0  0  0  0  0  0  0  0  0  0  0
    9.9624  -16.1700    0.0000 C   0  0  0  0  0  0  0  0  0  0  0  0
   12.3873  -18.9700    0.0000 C   0  0  0  0  0  0  0  0  0  0  0  0
   13.5997  -18.2700    0.0000 C   0  0  0  0  0  0  0  0  0  0  0  0
   13.5997  -16.8700    0.0000 C   0  0  0  0  0  0  0  0  0  0  0  0
   12.3873  -16.1700    0.0000 C   0  0  0  0  0  0  0  0  0  0  0  0
   14.8122  -16.1700    0.0000 C   0  0  0  0  0  0  0  0  0  0  0  0
   14.8122  -14.7700    0.0000 C   0  0  0  0  0  0  0  0  0  0  0  0
   13.5997  -14.0700    0.0000 C   0  0  0  0  0  0  0  0  0  0  0  0
   12.3873  -14.7700    0.0000 C   0  0  0  0  0  0  0  0  0  0  0  0
   17.2370  -16.1700    0.0000 C   0  0  0  0  0  0  0  0  0  0  0  0
   17.2370  -14.7700    0.0000 C   0  0  0  0  0  0  0  0  0  0  0  0
   16.0246  -14.0700    0.0000 C   0  0  0  0  0  0  0  0  0  0  0  0
    7.5376  -18.9700    0.0000 O   0  0  0  0  0  0  0  0  0  0  0  0
   11.1749  -15.4702    0.0000 C   0  0  0  0  0  0  0  0  0  0  0  0
   13.5997  -15.4701    0.0000 H   0  0  0  0  0  0  0  0  0  0  0  0
   14.8122  -13.3700    0.0000 C   0  0  0  0  0  0  0  0  0  0  0  0
   14.8122  -17.5700    0.0000 H   0  0  0  0  0  0  0  0  0  0  0  0
   12.3873  -17.5700    0.0000 H   0  0  0  0  0  0  0  0  0  0  0  0
  1  2  1  0     0  0
  2  3  1  0     0  0
  3  4  2  0     0  0
  4  5  1  0     0  0
  5  6  1  0     0  0
  1  6  1  0     0  0
  4  7  1  0     0  0
  7  8  1  0     0  0
  8  9  1  0     0  0
  9 10  1  0     0  0
  5 10  1  0     0  0
  9 11  1  0     0  0
 12 13  1  0     0  0
 13 14  1  0     0  0
 10 14  1  0     0  0
 12 11  1  0     0  0
 11 15  1  0     0  0
 15 16  1  0     0  0
 16 17  2  0     0  0
 12 17  1  0     0  0
  2 18  1  1     0  0
  5 19  1  1     0  0
  9 20  1  1     0  0
 12 21  1  1     0  0
 11 22  1  6     0  0
 10 23  1  6     0  0
M  END
