 
     RDKit          2D

 59 63  0  0  1  0  0  0  0  0999 V2000
   24.5408  -18.3925    0.0000 C   0  0  0  0  0  0  0  0  0  0  0  0
   25.7249  -19.0925    0.0000 C   0  0  0  0  0  0  0  0  0  0  0  0
   24.5467  -17.0217    0.0000 C   0  0  0  0  0  0  0  0  0  0  0  0
   23.3450  -19.0808    0.0000 C   0  0  0  0  0  0  0  0  0  0  0  0
   26.9791  -18.4099    0.0000 C   0  0  0  0  0  0  0  0  0  0  0  0
   25.7249  -20.4632    0.0000 C   0  0  0  0  0  0  0  0  0  0  0  0
   25.7483  -16.3508    0.0000 C   0  0  0  0  0  0  0  0  0  0  0  0
   23.3683  -16.3275    0.0000 C   0  0  0  0  0  0  0  0  0  0  0  0
   23.3392  -20.4515    0.0000 C   0  0  0  0  0  0  0  0  0  0  0  0
   22.1551  -18.3867    0.0000 C   0  0  0  0  0  0  0  0  0  0  0  0
   26.9267  -17.0451    0.0000 C   0  0  0  0  0  0  0  0  0  0  0  0
   29.2774  -18.4392    0.0000 C   0  0  0  0  0  0  0  0  0  0  0  0
   24.5234  -21.1458    0.0000 C   0  0  0  0  0  0  0  0  0  0  0  0
   23.3859  -14.9625    0.0000 C   0  0  0  0  0  0  0  0  0  0  0  0
   22.1725  -17.0101    0.0000 C   0  0  0  0  0  0  0  0  0  0  0  0
   22.1551  -21.1399    0.0000 C   0  0  0  0  0  0  0  0  0  0  0  0
   20.9650  -19.0808    0.0000 C   0  0  0  0  0  0  0  0  0  0  0  0
   28.1225  -16.3799    0.0000 C   0  0  0  0  0  0  0  0  0  0  0  0
   26.9500  -15.7500    0.0000 C   0  0  0  0  0  0  0  0  0  0  0  0
   29.2950  -17.0742    0.0000 C   0  0  0  0  0  0  0  0  0  0  0  0
   22.1959  -14.2625    0.0000 C   0  0  0  0  0  0  0  0  0  0  0  0
   20.9884  -16.3158    0.0000 C   0  0  0  0  0  0  0  0  0  0  0  0
   20.9650  -20.4515    0.0000 C   0  0  0  0  0  0  0  0  0  0  0  0
   29.2483  -15.6801    0.0000 C   0  0  0  0  0  0  0  0  0  0  0  0
   21.0000  -14.9451    0.0000 C   0  0  0  0  0  0  0  0  0  0  0  0
   19.7751  -21.1399    0.0000 O   0  0  0  0  0  0  0  0  0  0  0  0
   30.4208  -14.9625    0.0000 C   0  0  0  0  0  0  0  0  0  0  0  0
   19.8159  -14.2392    0.0000 N   0  0  0  0  0  0  0  0  0  0  0  0
   31.5932  -14.2392    0.0000 C   0  0  0  0  0  0  0  0  0  0  0  0
   19.8276  -12.8684    0.0000 C   0  0  0  0  0  0  0  0  0  0  0  0
   18.6201  -14.9217    0.0000 C   0  0  0  0  0  0  0  0  0  0  0  0
   28.1225  -14.8399    0.0000 O   0  0  0  0  0  0  0  0  0  0  0  0
   20.0900  -21.8400    0.0000 C   0  0  0  0  0  0  0  0  0  0  0  0
   20.0900  -23.2400    0.0000 C   0  0  0  0  0  0  0  0  0  0  0  0
   18.7600  -21.4200    0.0000 C   0  0  0  0  0  0  0  0  0  0  0  0
   21.3500  -20.7900    0.0000 C   0  0  0  0  0  0  0  0  0  0  0  0
   18.7600  -23.7300    0.0000 C   0  0  0  0  0  0  0  0  0  0  0  0
   21.3500  -24.2900    0.0000 C   0  0  0  0  0  0  0  0  0  0  0  0
   17.9900  -22.6100    0.0000 C   0  0  0  0  0  0  0  0  0  0  0  0
   18.3400  -20.1600    0.0000 O   0  0  0  0  0  0  0  0  0  0  0  0
   18.3400  -24.9900    0.0000 O   0  0  0  0  0  0  0  0  0  0  0  0
   22.5400  -23.5900    0.0000 C   0  0  0  0  0  0  0  0  0  0  0  0
   23.7300  -24.2900    0.0000 C   0  0  0  0  0  0  0  0  0  0  0  0
   24.9200  -23.5900    0.0000 C   0  0  0  0  0  0  0  0  0  0  0  0
   26.0400  -24.2900    0.0000 C   0  0  0  0  0  0  0  0  0  0  0  0
   27.3000  -23.5900    0.0000 C   0  0  0  0  0  0  0  0  0  0  0  0
   28.4900  -24.2900    0.0000 C   0  0  0  0  0  0  0  0  0  0  0  0
   29.6800  -23.5900    0.0000 C   0  0  0  0  0  0  0  0  0  0  0  0
   22.5400  -21.4900    0.0000 C   0  0  0  0  0  0  0  0  0  0  0  0
   23.7300  -20.7900    0.0000 C   0  0  0  0  0  0  0  0  0  0  0  0
   24.9200  -21.4900    0.0000 C   0  0  0  0  0  0  0  0  0  0  0  0
   26.0400  -20.7900    0.0000 C   0  0  0  0  0  0  0  0  0  0  0  0
   27.2300  -21.4900    0.0000 C   0  0  0  0  0  0  0  0  0  0  0  0
   28.4200  -20.7900    0.0000 C   0  0  0  0  0  0  0  0  0  0  0  0
   29.6800  -21.4900    0.0000 O   0  0  0  0  0  0  0  0  0  0  0  0
   25.8300  -22.6100    0.0000 O   0  0  0  0  0  0  0  0  0  0  0  0
   23.9400  -22.6100    0.0000 C   0  0  0  0  0  0  0  0  0  0  0  0
   30.8807  -20.7701    0.0000 C   0  0  0  0  0  0  0  0  0  0  0  0
   28.4028  -19.3901    0.0000 O   0  0  0  0  0  0  0  0  0  0  0  0
  1  2  1  0
  1  3  1  0
  1  4  2  0
  2  5  1  0
  2  6  1  6
  3  7  1  0
  3  8  1  1
  4  9  1  0
  4 10  1  0
  5 11  1  0
  5 12  1  1
  6 13  1  0
  8 14  2  0
  8 15  1  0
  9 16  2  0
 10 17  1  0
 11 18  1  0
 11 19  1  1
 12 20  1  0
 14 21  1  0
 15 22  2  0
 16 23  1  0
 18 24  1  0
 21 25  2  0
 23 26  2  0
 24 27  3  0
 25 28  1  0
 27 29  1  0
 28 30  1  0
 28 31  1  0
  7 11  1  0
  9 13  1  0
 17 23  1  0
 18 20  1  0
 22 25  1  0
 18 32  1  1
 33 34  1  0
 33 35  1  0
 33 36  1  6
 34 37  1  0
 34 38  1  1
 35 39  1  0
 35 40  2  0
 37 41  1  6
 38 42  2  0
 42 43  1  0
 43 44  1  0
 44 45  1  0
 45 46  1  0
 46 47  1  0
 47 48  1  0
 37 39  1  0
 36 49  1  0
 49 50  1  0
 50 51  1  0
 51 52  1  0
 52 53  1  0
 53 54  1  0
 54 55  1  0
 44 56  1  0
 44 57  1  0
 55 58  1  0
 54 59  2  0
M  END
