 
 
 
 30 34  0  0  0  0  0  0  0  0999 V2000
   35.5588  -12.9491    0.0000 C   0  0  0  0  0  0  0  0  0  0  0  0
   35.5588  -14.3490    0.0000 C   0  0  0  0  0  0  0  0  0  0  0  0
   34.2989  -12.1791    0.0000 C   0  0  0  0  0  0  0  0  0  0  0  0
   33.1089  -12.9491    0.0000 C   0  0  0  0  0  0  0  0  0  0  0  0
   33.1089  -14.3490    0.0000 C   0  0  0  0  0  0  0  0  0  0  0  0
   34.2989  -15.0490    0.0000 C   0  0  0  0  0  0  0  0  0  0  0  0
   31.9190  -12.1791    0.0000 O   0  0  0  0  0  0  0  0  0  0  0  0
   31.9190  -10.7792    0.0000 C   0  0  0  0  0  0  0  0  0  0  0  0
   33.1089  -10.0793    0.0000 C   0  0  0  0  0  0  0  0  0  0  0  0
   33.1089   -8.6793    0.0000 C   0  0  0  0  0  0  0  0  0  0  0  0
   31.9190   -7.9794    0.0000 N   0  0  0  0  0  0  0  0  0  0  0  0
   30.6591   -8.6793    0.0000 C   0  0  0  0  0  0  0  0  0  0  0  0
   30.6591  -10.0793    0.0000 C   0  0  0  0  0  0  0  0  0  0  0  0
   29.4691   -7.9794    0.0000 C   0  0  0  0  0  0  0  0  0  0  0  0
   28.2792   -8.6793    0.0000 C   0  0  0  0  0  0  0  0  0  0  0  0
   28.2792  -10.0793    0.0000 C   0  0  0  0  0  0  0  0  0  0  0  0
   29.4691  -10.7792    0.0000 C   0  0  0  0  0  0  0  0  0  0  0  0
   27.0892   -7.9794    0.0000 O   0  0  0  0  0  0  0  0  0  0  0  0
   25.8993   -8.6793    0.0000 C   0  0  0  0  0  0  0  0  0  0  0  0
   24.7094   -7.9794    0.0000 C   0  0  0  0  0  0  0  0  0  0  0  0
   27.0892  -10.7792    0.0000 O   0  0  0  0  0  0  0  0  0  0  0  0
   25.8993  -10.0793    0.0000 C   0  0  0  0  0  0  0  0  0  0  0  0
   23.5194   -8.6793    0.0000 N   0  0  0  0  0  0  0  0  0  0  0  0
   25.4093   -6.7894    0.0000 C   0  0  0  0  0  0  0  0  0  0  0  0
   24.0094   -6.7894    0.0000 C   0  0  0  0  0  0  0  0  0  0  0  0
   31.8940  -15.0439    0.0000 F   0  0  0  0  0  0  0  0  0  0  0  0
   34.5752  -16.4636    0.0000 C   0  0  0  0  0  0  0  0  0  0  0  0
   36.0060  -16.6379    0.0000 C   0  0  0  0  0  0  0  0  0  0  0  0
   36.6138  -15.3310    0.0000 N   0  0  0  0  0  0  0  0  0  0  0  0
   36.6891  -17.8671    0.0000 C   0  0  0  0  0  0  0  0  0  0  0  0
  1  2  2  0     0  0
  1  3  1  0     0  0
  3  4  2  0     0  0
  4  5  1  0     0  0
  5  6  2  0     0  0
  2  6  1  0     0  0
  4  7  1  0     0  0
  7  8  1  0     0  0
  8  9  2  0     0  0
  9 10  1  0     0  0
 10 11  2  0     0  0
 11 12  1  0     0  0
 12 13  2  0     0  0
  8 13  1  0     0  0
 12 14  1  0     0  0
 14 15  2  0     0  0
 15 16  1  0     0  0
 16 17  2  0     0  0
 13 17  1  0     0  0
 15 18  1  0     0  0
 18 19  1  0     0  0
 19 20  1  0     0  0
 16 21  1  0     0  0
 21 22  1  0     0  0
 20 23  1  0     0  0
 24 25  1  0     0  0
 25 20  1  0     0  0
 20 24  1  0     0  0
  5 26  1  0     0  0
  6 27  1  0     0  0
 27 28  2  0     0  0
 28 29  1  0     0  0
  2 29  1  0     0  0
 28 30  1  0     0  0
M  END
