 
 
 
 11 11  0  0  1  0  0  0  0  0999 V2000
   18.6542  -16.6353    0.0000 C   0  0  2  0  0  0  0  0  0  0  0  0
   17.4709  -15.9393    0.0000 C   0  0  1  0  0  0  0  0  0  0  0  0
   19.8374  -15.9393    0.0000 C   0  0  1  0  0  0  0  0  0  0  0  0
   18.6542  -18.0274    0.0000 O   0  0  0  0  0  0  0  0  0  0  0  0
   17.4709  -14.5473    0.0000 C   0  0  1  0  0  0  0  0  0  0  0  0
   16.2181  -16.6353    0.0000 O   0  0  0  0  0  0  0  0  0  0  0  0
   19.8374  -14.5473    0.0000 C   0  0  3  0  0  0  0  0  0  0  0  0
   21.0903  -16.6353    0.0000 O   0  0  0  0  0  0  0  0  0  0  0  0
   18.6542  -13.8512    0.0000 O   0  0  0  0  0  0  0  0  0  0  0  0
   16.2181  -13.8512    0.0000 C   0  0  0  0  0  0  0  0  0  0  0  0
   21.0903  -13.8512    0.0000 O   0  0  0  0  0  0  0  0  0  0  0  0
  1  2  1  0     0  0
  1  3  1  0     0  0
  1  4  1  6     0  0
  2  5  1  0     0  0
  2  6  1  6     0  0
  3  7  1  0     0  0
  3  8  1  1     0  0
  5  9  1  0     0  0
  5 10  1  6     0  0
  7 11  1  4     0  0
  7  9  1  0     0  0
M  END
