 
 
 
 33 38  0  0  1  0  0  0  0  0999 V2000
   20.7900  -13.9300    0.0000 C   0  0  0  0  0  0  0  0  0  0  0  0
   20.7900  -12.5300    0.0000 N   0  0  0  0  0  0  0  0  0  0  0  0
   19.5300  -11.8300    0.0000 C   0  0  0  0  0  0  0  0  0  0  0  0
   18.2700  -12.5300    0.0000 C   0  0  0  0  0  0  0  0  0  0  0  0
   18.2700  -13.9300    0.0000 C   0  0  0  0  0  0  0  0  0  0  0  0
   19.5300  -14.6300    0.0000 N   0  0  0  0  0  0  0  0  0  0  0  0
   20.7900  -16.6600    0.0000 N   0  0  0  0  0  0  0  0  0  0  0  0
   21.9800  -16.0300    0.0000 C   0  0  0  0  0  0  0  0  0  0  0  0
   21.9800  -14.6300    0.0000 C   0  0  0  0  0  0  0  0  0  0  0  0
   17.0800  -14.6300    0.0000 N   0  0  0  0  0  0  0  0  0  0  0  0
   17.0800  -16.0300    0.0000 C   0  0  0  0  0  0  0  0  0  0  0  0
   20.7900  -18.0600    0.0000 C   0  0  0  0  0  0  0  0  0  0  0  0
   18.2700  -18.0600    0.0000 O   0  0  0  0  0  0  0  0  0  0  0  0
   19.5300  -18.7600    0.0000 C   0  0  0  0  0  0  0  0  0  0  0  0
   16.8700  -18.0600    0.0000 C   0  0  0  0  0  0  0  0  0  0  0  0
   16.5200  -16.7300    0.0000 C   0  0  0  0  0  0  0  0  0  0  0  0
   22.9600  -13.3000    0.0000 C   0  0  0  0  0  0  0  0  0  0  0  0
   21.9800  -11.9700    0.0000 N   0  0  0  0  0  0  0  0  0  0  0  0
   15.2600  -16.4500    0.0000 C   0  0  0  0  0  0  0  0  0  0  0  0
   14.2100  -17.3600    0.0000 C   0  0  0  0  0  0  0  0  0  0  0  0
   14.6300  -18.6900    0.0000 C   0  0  0  0  0  0  0  0  0  0  0  0
   15.9600  -19.0400    0.0000 N   0  0  0  0  0  0  0  0  0  0  0  0
   12.8800  -16.9400    0.0000 F   0  0  0  0  0  0  0  0  0  0  0  0
   23.1700  -16.6600    0.0000 O   0  0  0  0  0  0  0  0  0  0  0  0
   19.5300  -20.1600    0.0000 C   0  0  0  0  0  0  0  0  0  0  0  0
   15.8200  -12.5300    0.0000 C   0  0  0  0  0  0  0  0  0  0  0  0
   15.8200  -13.9300    0.0000 C   0  0  0  0  0  0  0  0  0  0  0  0
   17.0100  -11.8300    0.0000 O   0  0  0  0  0  0  0  0  0  0  0  0
   14.4885  -12.0974    0.0000 C   0  0  0  0  0  0  0  0  0  0  0  0
   13.6656  -13.2300    0.0000 C   0  0  0  0  0  0  0  0  0  0  0  0
   14.4885  -14.3626    0.0000 C   0  0  0  0  0  0  0  0  0  0  0  0
   15.8200  -11.1300    0.0000 H   0  0  0  0  0  0  0  0  0  0  0  0
   15.8200  -15.3300    0.0000 H   0  0  0  0  0  0  0  0  0  0  0  0
  1  2  1  0     0  0
  2  3  1  0     0  0
  3  4  2  0     0  0
  4  5  1  0     0  0
  5  6  2  0     0  0
  1  6  1  0     0  0
  7  8  1  0     0  0
  8  9  1  0     0  0
  1  9  2  0     0  0
  5 10  1  0     0  0
 10 11  1  0     0  0
 12  7  1  0     0  0
 13 14  1  0     0  0
 12 14  1  0     0  0
 13 15  1  0     0  0
 15 16  1  0     0  0
 16 11  1  0     0  0
  9 17  1  0     0  0
 17 18  2  0     0  0
 18  2  1  0     0  0
 16 19  2  0     0  0
 19 20  1  0     0  0
 20 21  2  0     0  0
 21 22  1  0     0  0
 15 22  2  0     0  0
 20 23  1  0     0  0
  8 24  2  0     0  0
 14 25  1  6     0  0
 26 27  1  0     0  0
 27 10  1  0     0  0
  4 28  1  0     0  0
 26 28  1  0     0  0
 26 29  1  0     0  0
 29 30  1  0     0  0
 30 31  1  0     0  0
 27 31  1  0     0  0
 26 32  1  1     0  0
 27 33  1  1     0  0
M  END
