 
 
 
 23 22  0  0  0  0  0  0  0  0999 V2000
   20.4601  -15.2750    0.0000 O   0  0  0  0  0  0  0  0  0  0  0  0
   19.2689  -15.9757    0.0000 C   0  0  0  0  0  0  0  0  0  0  0  0
   18.0778  -15.2750    0.0000 C   0  0  3  0  0  0  0  0  0  0  0  0
   19.2689  -17.3771    0.0000 O   0  0  0  0  0  0  0  0  0  0  0  0
   16.8866  -15.9757    0.0000 C   0  0  0  0  0  0  0  0  0  0  0  0
   15.6254  -15.2750    0.0000 C   0  0  0  0  0  0  0  0  0  0  0  0
   14.4342  -15.9757    0.0000 C   0  0  0  0  0  0  0  0  0  0  0  0
   14.4342  -17.3771    0.0000 C   0  0  0  0  0  0  0  0  0  0  0  0
   15.6254  -18.0778    0.0000 C   0  0  0  0  0  0  0  0  0  0  0  0
   16.8866  -17.3771    0.0000 C   0  0  0  0  0  0  0  0  0  0  0  0
   13.2430  -18.0778    0.0000 C   0  0  0  0  0  0  0  0  0  0  0  0
   11.9818  -17.3771    0.0000 C   0  0  3  0  0  0  0  0  0  0  0  0
   10.7906  -18.0778    0.0000 C   0  0  0  0  0  0  0  0  0  0  0  0
   11.9818  -15.9757    0.0000 C   0  0  0  0  0  0  0  0  0  0  0  0
   18.0778  -13.8736    0.0000 C   0  0  0  0  0  0  0  0  0  0  0  0
   21.6513  -15.9757    0.0000 C   0  0  0  0  0  0  0  0  0  0  0  0
   22.8425  -15.2750    0.0000 C   0  0  0  0  0  0  0  0  0  0  0  0
   24.0336  -15.9757    0.0000 N   0  0  0  0  0  0  0  0  0  0  0  0
   25.2248  -15.2750    0.0000 C   0  0  0  0  0  0  0  0  0  0  0  0
   26.4860  -15.9757    0.0000 C   0  0  0  0  0  0  0  0  0  0  0  0
   24.0336  -17.3771    0.0000 C   0  0  0  0  0  0  0  0  0  0  0  0
   25.2248  -18.1478    0.0000 C   0  0  0  0  0  0  0  0  0  0  0  0
   29.5400  -17.8500    0.0000 Cl  0  0  0  0  0  0  0  0  0  0  0  0
  2  4  2  0     0  0
  3  5  1  0     0  0
  5  6  2  0     0  0
  6  7  1  0     0  0
  7  8  2  0     0  0
  8  9  1  0     0  0
  9 10  2  0     0  0
 10  5  1  0     0  0
  8 11  1  0     0  0
  1  2  1  0     0  0
 11 12  1  0     0  0
 12 13  1  0     0  0
  2  3  1  0     0  0
 12 14  1  0     0  0
  3 15  1  0     0  0
  1 16  1  0     0  0
 16 17  1  0     0  0
 17 18  1  0     0  0
 18 19  1  0     0  0
 19 20  1  0     0  0
 18 21  1  0     0  0
 21 22  1  0     0  0
M  END
