 
 
 
 28 32  0  0  0  0  0  0  0  0999 V2000
   21.1400   -9.1000    0.0000 C   0  0  0  0  0  0  0  0  0  0  0  0
   21.1400  -10.5000    0.0000 C   0  0  0  0  0  0  0  0  0  0  0  0
   19.9500  -11.2000    0.0000 C   0  0  0  0  0  0  0  0  0  0  0  0
   18.6900  -10.5000    0.0000 C   0  0  0  0  0  0  0  0  0  0  0  0
   18.6900   -9.1000    0.0000 C   0  0  0  0  0  0  0  0  0  0  0  0
   19.9500   -8.4000    0.0000 C   0  0  0  0  0  0  0  0  0  0  0  0
   19.9500  -12.6000    0.0000 C   0  0  0  0  0  0  0  0  0  0  0  0
   21.0700  -13.5100    0.0000 N   0  0  0  0  0  0  0  0  0  0  0  0
   18.6200  -12.9500    0.0000 C   0  0  0  0  0  0  0  0  0  0  0  0
   17.9900  -14.2100    0.0000 C   0  0  0  0  0  0  0  0  0  0  0  0
   21.0700  -14.9100    0.0000 C   0  0  0  0  0  0  0  0  0  0  0  0
   18.6200  -15.4700    0.0000 N   0  0  0  0  0  0  0  0  0  0  0  0
   19.9500  -15.7500    0.0000 C   0  0  0  0  0  0  0  0  0  0  0  0
   22.1900  -15.7500    0.0000 C   0  0  0  0  0  0  0  0  0  0  0  0
   21.7700  -17.0800    0.0000 N   0  0  0  0  0  0  0  0  0  0  0  0
   20.3700  -17.0800    0.0000 N   0  0  0  0  0  0  0  0  0  0  0  0
   23.5200  -15.2600    0.0000 C   0  0  0  0  0  0  0  0  0  0  0  0
   16.5900  -14.2800    0.0000 C   0  0  0  0  0  0  0  0  0  0  0  0
   15.8200  -13.1600    0.0000 C   0  0  0  0  0  0  0  0  0  0  0  0
   16.4500  -11.9000    0.0000 N   0  0  0  0  0  0  0  0  0  0  0  0
   17.8500  -11.7600    0.0000 C   0  0  0  0  0  0  0  0  0  0  0  0
   14.4200  -13.2300    0.0000 N   0  0  0  0  0  0  0  0  0  0  0  0
   13.7900  -14.4900    0.0000 C   0  0  0  0  0  0  0  0  0  0  0  0
   12.3900  -14.5600    0.0000 C   0  0  0  0  0  0  0  0  0  0  0  0
   11.6200  -13.3700    0.0000 O   0  0  0  0  0  0  0  0  0  0  0  0
   12.2500  -12.1100    0.0000 C   0  0  0  0  0  0  0  0  0  0  0  0
   13.6500  -12.0400    0.0000 C   0  0  0  0  0  0  0  0  0  0  0  0
   22.3300  -11.2000    0.0000 Cl  0  0  0  0  0  0  0  0  0  0  0  0
  1  2  2  0     0  0
  2  3  1  0     0  0
  3  4  2  0     0  0
  4  5  1  0     0  0
  5  6  2  0     0  0
  1  6  1  0     0  0
  3  7  1  0     0  0
  9 10  1  0     0  0
  8 11  1  0     0  0
 10 12  1  0     0  0
  7  9  1  0     0  0
 11 13  2  0     0  0
  8  7  2  0     0  0
 12 13  1  0     0  0
 11 14  1  0     0  0
 14 15  2  0     0  0
 15 16  1  0     0  0
 13 16  1  0     0  0
 14 17  1  0     0  0
 10 18  2  0     0  0
 18 19  1  0     0  0
 19 20  2  0     0  0
 20 21  1  0     0  0
  9 21  2  0     0  0
 19 22  1  0     0  0
 22 23  1  0     0  0
 23 24  1  0     0  0
 24 25  1  0     0  0
 25 26  1  0     0  0
 26 27  1  0     0  0
 22 27  1  0     0  0
  2 28  1  0     0  0
M  END
