 
 
 
 41 47  0  0  1  0  0  0  0  0999 V2000
   16.1700  -19.3900    0.0000 C   0  0  0  0  0  0  0  0  0  0  0  0
   16.1700  -20.7900    0.0000 C   0  0  0  0  0  0  0  0  0  0  0  0
   17.3600  -21.4900    0.0000 C   0  0  0  0  0  0  0  0  0  0  0  0
   18.6200  -20.7900    0.0000 C   0  0  0  0  0  0  0  0  0  0  0  0
   18.6200  -19.3900    0.0000 C   0  0  0  0  0  0  0  0  0  0  0  0
   17.3600  -18.6900    0.0000 C   0  0  0  0  0  0  0  0  0  0  0  0
   19.8100  -18.6900    0.0000 C   0  0  0  0  0  0  0  0  0  0  0  0
   21.0000  -19.3900    0.0000 C   0  0  0  0  0  0  0  0  0  0  0  0
   22.1900  -18.6900    0.0000 C   0  0  0  0  0  0  0  0  0  0  0  0
   22.1900  -17.2900    0.0000 N   0  0  0  0  0  0  0  0  0  0  0  0
   21.0000  -16.5900    0.0000 C   0  0  0  0  0  0  0  0  0  0  0  0
   19.8100  -17.2900    0.0000 C   0  0  0  0  0  0  0  0  0  0  0  0
   23.4500  -16.5900    0.0000 C   0  0  0  0  0  0  0  0  0  0  0  0
   24.6400  -17.2900    0.0000 C   0  0  0  0  0  0  0  0  0  0  0  0
   24.5700  -18.6900    0.0000 N   0  0  0  0  0  0  0  0  0  0  0  0
   25.9000  -19.1800    0.0000 C   0  0  0  0  0  0  0  0  0  0  0  0
   26.8100  -18.0600    0.0000 C   0  0  0  0  0  0  0  0  0  0  0  0
   25.9700  -16.8700    0.0000 N   0  0  0  0  0  0  0  0  0  0  0  0
   23.4500  -19.4600    0.0000 C   0  0  0  0  0  0  0  0  0  0  0  0
   23.4500  -20.8600    0.0000 C   0  0  0  0  0  0  0  0  0  0  0  0
   22.4700  -21.8400    0.0000 O   0  0  0  0  0  0  0  0  0  0  0  0
   23.4500  -22.8200    0.0000 C   0  0  0  0  0  0  0  0  0  0  0  0
   24.4300  -21.8400    0.0000 C   0  0  0  0  0  0  0  0  0  0  0  0
   26.4600  -20.4400    0.0000 C   0  0  0  0  0  0  0  0  0  0  0  0
   27.7900  -20.6500    0.0000 C   0  0  0  0  0  0  0  0  0  0  0  0
   28.7000  -19.5300    0.0000 C   0  0  0  0  0  0  0  0  0  0  0  0
   28.1400  -18.2700    0.0000 C   0  0  0  0  0  0  0  0  0  0  0  0
   28.3500  -21.9100    0.0000 C   0  0  0  0  0  0  0  0  0  0  0  0
   29.6800  -22.1200    0.0000 O   0  0  0  0  0  0  0  0  0  0  0  0
   27.4400  -23.0300    0.0000 O   0  0  0  0  0  0  0  0  0  0  0  0
   15.1200  -18.4800    0.0000 O   0  0  0  0  0  0  0  0  0  0  0  0
   15.6800  -17.2200    0.0000 C   0  0  0  0  0  0  0  0  0  0  0  0
   17.0800  -17.3600    0.0000 O   0  0  0  0  0  0  0  0  0  0  0  0
   14.9800  -16.0300    0.0000 C   0  0  0  0  0  0  0  0  0  0  0  0
   13.5800  -16.0300    0.0000 C   0  0  0  0  0  0  0  0  0  0  0  0
   12.8800  -14.8400    0.0000 C   0  0  0  0  0  0  0  0  0  0  0  0
   13.5800  -13.5800    0.0000 C   0  0  0  0  0  0  0  0  0  0  0  0
   14.9800  -13.5800    0.0000 C   0  0  0  0  0  0  0  0  0  0  0  0
   15.6800  -14.7700    0.0000 N   0  0  0  0  0  0  0  0  0  0  0  0
   12.8800  -12.3900    0.0000 Cl  0  0  0  0  0  0  0  0  0  0  0  0
   14.2800  -17.2200    0.0000 C   0  0  0  0  0  0  0  0  0  0  0  0
  1  2  2  0     0  0
  2  3  1  0     0  0
  3  4  2  0     0  0
  4  5  1  0     0  0
  5  6  2  0     0  0
  1  6  1  0     0  0
  5  7  1  0     0  0
  7  8  1  0     0  0
  8  9  1  0     0  0
  9 10  1  0     0  0
 10 11  1  0     0  0
 11 12  1  0     0  0
  7 12  1  0     0  0
 10 13  1  0     0  0
 13 14  1  0     0  0
 14 15  1  0     0  0
 15 16  1  0     0  0
 16 17  2  0     0  0
 17 18  1  0     0  0
 14 18  2  0     0  0
 15 19  1  0     0  0
 20 19  1  6     0  0
 20 21  1  0     0  0
 21 22  1  0     0  0
 22 23  1  0     0  0
 20 23  1  0     0  0
 16 24  1  0     0  0
 24 25  2  0     0  0
 25 26  1  0     0  0
 26 27  2  0     0  0
 17 27  1  0     0  0
 25 28  1  0     0  0
 28 29  1  0     0  0
 28 30  2  0     0  0
  1 31  1  0     0  0
 31 32  1  0     0  0
 32 33  1  0     0  0
  6 33  1  0     0  0
 32 34  1  1     0  0
 34 35  2  0     0  0
 35 36  1  0     0  0
 36 37  2  0     0  0
 37 38  1  0     0  0
 38 39  2  0     0  0
 34 39  1  0     0  0
 37 40  1  0     0  0
 32 41  1  6     0  0
M  END
