 
 
 
 50 52  0  0  1  0  0  0  0  0999 V2000
   19.2451  -16.0260    0.0000 N   0  0  3  0  0  0  0  0  0  0  0  0
   20.4349  -15.3961    0.0000 C   0  0  0  0  0  0  0  0  0  0  0  0
   18.0554  -15.3961    0.0000 C   0  0  0  0  0  0  0  0  0  0  0  0
   18.0554  -13.9265    0.0000 O   0  0  0  0  0  0  0  0  0  0  0  0
   21.6246  -16.0959    0.0000 C   0  0  0  0  0  0  0  0  0  0  0  0
   22.8143  -15.3961    0.0000 N   0  0  0  0  0  0  0  0  0  0  0  0
   24.0040  -16.0959    0.0000 C   0  0  0  0  0  0  0  0  0  0  0  0
   25.1937  -15.3961    0.0000 C   0  0  0  0  0  0  0  0  0  0  0  0
   26.3834  -16.0959    0.0000 C   0  0  0  0  0  0  0  0  0  0  0  0
   27.5731  -15.3961    0.0000 C   0  0  0  0  0  0  0  0  0  0  0  0
   21.6246  -17.4256    0.0000 O   0  0  0  0  0  0  0  0  0  0  0  0
   20.4349  -13.9265    0.0000 C   0  0  0  0  0  0  0  0  0  0  0  0
   21.6945  -13.2267    0.0000 C   0  0  0  0  0  0  0  0  0  0  0  0
   22.8143  -13.9265    0.0000 C   0  0  0  0  0  0  0  0  0  0  0  0
   24.0739  -13.2267    0.0000 C   0  0  0  0  0  0  0  0  0  0  0  0
   24.0739  -11.8270    0.0000 C   0  0  0  0  0  0  0  0  0  0  0  0
   22.8842  -11.1972    0.0000 C   0  0  0  0  0  0  0  0  0  0  0  0
   21.6945  -11.8270    0.0000 C   0  0  0  0  0  0  0  0  0  0  0  0
   24.0040  -17.9855    0.0000 C   0  0  0  0  0  0  0  0  0  0  0  0
   22.8143  -18.6853    0.0000 C   0  0  0  0  0  0  0  0  0  0  0  0
   19.1752  -13.2267    0.0000 O   0  0  0  0  0  0  0  0  0  0  0  0
   21.4146  -18.6853    0.0000 C   0  0  0  0  0  0  0  0  0  0  0  0
   20.9947  -20.0150    0.0000 C   0  0  0  0  0  0  0  0  0  0  0  0
   22.1144  -20.7848    0.0000 C   0  0  0  0  0  0  0  0  0  0  0  0
   23.2341  -19.9450    0.0000 C   0  0  0  0  0  0  0  0  0  0  0  0
   25.1937  -13.9965    0.0000 O   0  0  0  0  0  0  0  0  0  0  0  0
   25.2636  -11.1272    0.0000 O   0  0  0  0  0  0  0  0  0  0  0  0
   26.5233  -11.7570    0.0000 C   0  0  0  0  0  0  0  0  0  0  0  0
   16.8657  -16.0959    0.0000 C   0  0  0  0  0  0  0  0  0  0  0  0
   15.6061  -15.3961    0.0000 N   0  0  0  0  0  0  0  0  0  0  0  0
   14.4164  -16.1659    0.0000 C   0  0  0  0  0  0  0  0  0  0  0  0
   13.2267  -15.4661    0.0000 C   0  0  0  0  0  0  0  0  0  0  0  0
   12.0370  -16.1659    0.0000 N   0  0  0  0  0  0  0  0  0  0  0  0
   14.4164  -17.5656    0.0000 O   0  0  0  0  0  0  0  0  0  0  0  0
   10.7773  -15.5361    0.0000 C   0  0  0  0  0  0  0  0  0  0  0  0
    9.6576  -16.2359    0.0000 C   0  0  0  0  0  0  0  0  0  0  0  0
    9.6576  -17.6356    0.0000 O   0  0  0  0  0  0  0  0  0  0  0  0
   10.8473  -18.3354    0.0000 C   0  0  0  0  0  0  0  0  0  0  0  0
   12.0370  -17.5656    0.0000 C   0  0  0  0  0  0  0  0  0  0  0  0
   25.6835  -17.2856    0.0000 C   0  0  0  0  0  0  0  0  0  0  0  0
   27.0832  -17.2856    0.0000 O   0  0  0  0  0  0  0  0  0  0  0  0
   16.8657  -17.4956    0.0000 C   0  0  0  0  0  0  0  0  0  0  0  0
   31.7553  -18.7018    0.0000 C   0  0  0  0  0  0  0  0  0  0  0  0
   30.3442  -18.7018    0.0000 O   0  0  0  0  0  0  0  0  0  0  0  0
   32.4609  -19.9013    0.0000 O   0  0  0  0  0  0  0  0  0  0  0  0
   32.4609  -17.5024    0.0000 C   0  0  0  0  0  0  0  0  0  0  0  0
   33.8721  -17.5024    0.0000 C   0  0  0  0  0  0  0  0  0  0  0  0
   34.5777  -18.7018    0.0000 C   0  0  0  0  0  0  0  0  0  0  0  0
   35.9888  -18.7018    0.0000 O   0  0  0  0  0  0  0  0  0  0  0  0
   33.8721  -19.9013    0.0000 O   0  0  0  0  0  0  0  0  0  0  0  0
  3  1  1  0     0  0
  2  1  1  1     0  0
  3  4  2  0     0  0
  2  5  1  0     0  0
  5  6  1  0     0  0
  6  7  1  0     0  0
  7  8  1  0     0  0
  9  8  1  6     0  0
  9 10  1  1     0  0
  5 11  2  0     0  0
 12 13  1  0     0  0
 13 14  2  0     0  0
 14 15  1  0     0  0
 15 16  2  0     0  0
 16 17  1  0     0  0
 17 18  2  0     0  0
 13 18  1  0     0  0
  2 12  1  0     0  0
 19 20  1  0     0  0
  7 19  1  6     0  0
 12 21  1  6     0  0
 20 22  2  0     0  0
 22 23  1  0     0  0
 23 24  1  0     0  0
 24 25  1  0     0  0
 20 25  1  0     0  0
  8 26  2  0     0  0
 16 27  1  0     0  0
 27 28  1  0     0  0
  3 29  1  0     0  0
 29 30  1  0     0  0
 30 31  1  0     0  0
 31 32  1  0     0  0
 32 33  1  0     0  0
 31 34  2  0     0  0
 33 35  1  0     0  0
 35 36  1  0     0  0
 36 37  1  0     0  0
 37 38  1  0     0  0
 38 39  1  0     0  0
 33 39  1  0     0  0
 40 41  1  0     0  0
 41  9  1  0     0  0
  9 40  1  0     0  0
 29 42  1  6     0  0
 43 44  1  0     0  0
 43 45  2  0     0  0
 43 46  1  0     0  0
 46 47  2  0     0  0
 47 48  1  0     0  0
 48 49  2  0     0  0
 48 50  1  0     0  0
M  END
