 
 
 
 22 26  0  0  1  0  0  0  0  0999 V2000
   17.5086  -16.4539    0.0000 C   0  0  2  0  0  0  0  0  0  0  0  0
   17.5086  -15.1882    0.0000 C   0  0  0  0  0  0  0  0  0  0  0  0
   18.7039  -17.1570    0.0000 C   0  0  2  0  0  0  0  0  0  0  0  0
   16.3836  -17.0867    0.0000 C   0  0  1  0  0  0  0  0  0  0  0  0
   18.7039  -15.8210    0.0000 C   0  0  0  0  0  0  0  0  0  0  0  0
   16.3836  -14.5554    0.0000 C   0  0  0  0  0  0  0  0  0  0  0  0
   18.7039  -14.5554    0.0000 C   0  0  0  0  0  0  0  0  0  0  0  0
   19.7586  -16.4539    0.0000 C   0  0  1  0  0  0  0  0  0  0  0  0
   18.7039  -18.4227    0.0000 C   0  0  0  0  0  0  0  0  0  0  0  0
   15.0476  -15.7507    0.0000 O   0  0  0  0  0  0  0  0  0  0  0  0
   16.3836  -18.4227    0.0000 C   0  0  2  0  0  0  0  0  0  0  0  0
   20.8837  -15.8210    0.0000 C   0  0  0  0  0  0  0  0  0  0  0  0
   16.3836  -13.2194    0.0000 C   0  0  0  0  0  0  0  0  0  0  0  0
   19.7586  -15.2585    0.0000 C   0  0  0  0  0  0  0  0  0  0  0  0
   18.7039  -13.2194    0.0000 C   0  0  0  0  0  0  0  0  0  0  0  0
   20.8837  -17.1570    0.0000 N   0  0  3  0  0  0  0  0  0  0  0  0
   17.5086  -19.1258    0.0000 C   0  0  0  0  0  0  0  0  0  0  0  0
   17.5789  -12.5866    0.0000 C   0  0  0  0  0  0  0  0  0  0  0  0
   15.2585  -12.5866    0.0000 O   0  0  0  0  0  0  0  0  0  0  0  0
   19.8993  -18.0711    0.0000 H   0  0  0  0  0  0  0  0  0  0  0  0
   22.2900  -17.1570    0.0000 C   0  0  0  0  0  0  0  0  0  0  0  0
   15.3992  -19.4071    0.0000 C   0  0  0  0  0  0  0  0  0  0  0  0
  1  2  1  0     0  0
  1  3  1  0     0  0
  1  4  1  0     0  0
  1  5  1  1     0  0
  2  6  2  0     0  0
  2  7  1  0     0  0
  3  8  1  0     0  0
  3  9  1  0     0  0
  4 10  1  6     0  0
  4 11  1  0     0  0
  5 12  1  0     0  0
  6 13  1  0     0  0
  7 14  1  0     0  0
  7 15  2  0     0  0
  8 16  1  1     0  0
  9 17  1  0     0  0
 13 18  2  0     0  0
 13 19  1  0     0  0
  6 10  1  0     0  0
  8 14  1  0     0  0
 11 17  2  0     0  0
 12 16  1  0     0  0
 15 18  1  0     0  0
  3 20  1  1     0  0
 16 21  1  0     0  0
 11 22  1  0     0  0
M  END
