 
 
 
 26 27  0  0  1  0  0  0  0  0999 V2000
   15.5066  -17.6114    0.0000 C   0  0  0  0  0  0  0  0  0  0  0  0
   15.5066  -18.9445    0.0000 C   0  0  0  0  0  0  0  0  0  0  0  0
   16.6994  -19.6462    0.0000 C   0  0  0  0  0  0  0  0  0  0  0  0
   17.8922  -18.9445    0.0000 C   0  0  0  0  0  0  0  0  0  0  0  0
   17.8922  -17.6114    0.0000 C   0  0  0  0  0  0  0  0  0  0  0  0
   16.6994  -16.9097    0.0000 C   0  0  0  0  0  0  0  0  0  0  0  0
   20.2778  -18.9445    0.0000 C   0  0  0  0  0  0  0  0  0  0  0  0
   20.2778  -17.6114    0.0000 C   0  0  0  0  0  0  0  0  0  0  0  0
   19.0850  -16.9097    0.0000 C   0  0  0  0  0  0  0  0  0  0  0  0
   21.4005  -19.6462    0.0000 C   0  0  0  0  0  0  0  0  0  0  0  0
   22.5933  -18.9445    0.0000 C   0  0  0  0  0  0  0  0  0  0  0  0
   22.5933  -17.6114    0.0000 C   0  0  0  0  0  0  0  0  0  0  0  0
   21.4005  -16.9097    0.0000 C   0  0  0  0  0  0  0  0  0  0  0  0
   19.0850  -15.5064    0.0000 C   0  0  0  0  0  0  0  0  0  0  0  0
   20.2778  -14.8750    0.0000 C   0  0  0  0  0  0  0  0  0  0  0  0
   17.0502  -15.7871    0.0000 C   0  0  0  0  0  0  0  0  0  0  0  0
   21.4005  -15.5064    0.0000 C   0  0  0  0  0  0  0  0  0  0  0  0
   15.8574  -16.4887    0.0000 C   0  0  0  0  0  0  0  0  0  0  0  0
   14.7348  -15.7871    0.0000 C   0  0  0  0  0  0  0  0  0  0  0  0
   17.0502  -14.4540    0.0000 O   0  0  0  0  0  0  0  0  0  0  0  0
   15.8574  -13.7523    0.0000 C   0  0  0  0  0  0  0  0  0  0  0  0
   14.6646  -14.4540    0.0000 C   0  0  0  0  0  0  0  0  0  0  0  0
   15.8574  -12.3490    0.0000 O   0  0  0  0  0  0  0  0  0  0  0  0
   20.2778  -13.4717    0.0000 N   0  0  0  0  0  0  0  0  0  0  0  0
   21.4005  -12.7700    0.0000 C   0  0  0  0  0  0  0  0  0  0  0  0
   19.0149  -12.7700    0.0000 C   0  0  0  0  0  0  0  0  0  0  0  0
  1  2  2  0     0  0
  2  3  1  0     0  0
  3  4  2  0     0  0
  4  5  1  0     0  0
  5  6  2  0     0  0
  1  6  1  0     0  0
  7  8  1  0     0  0
  8  9  1  0     0  0
  5  9  1  0     0  0
  7 10  2  0     0  0
 10 11  1  0     0  0
 11 12  2  0     0  0
 12 13  1  0     0  0
  8 13  2  0     0  0
  9 14  1  0     0  0
 14 15  1  0     0  0
  9 16  1  0     0  0
 15 17  1  0     0  0
 16 18  1  0     0  0
 18 19  1  0     0  0
 20 21  1  0     0  0
 21 22  1  0     0  0
 21 23  2  0     0  0
 16 20  1  6     0  0
 24 25  1  0     0  0
 24 26  1  0     0  0
 15 24  1  6     0  0
M  END
