 
 
 
 20 21  0  0  0  0  0  0  0  0999 V2000
   19.1613  -15.4501    0.0000 C   0  0  0  0  0  0  0  0  0  0  0  0
   20.5595  -15.4501    0.0000 C   0  0  0  0  0  0  0  0  0  0  0  0
   21.2586  -14.2616    0.0000 C   0  0  0  0  0  0  0  0  0  0  0  0
   20.5595  -13.0731    0.0000 C   0  0  0  0  0  0  0  0  0  0  0  0
   19.1613  -13.0731    0.0000 C   0  0  0  0  0  0  0  0  0  0  0  0
   18.4622  -14.2616    0.0000 C   0  0  0  0  0  0  0  0  0  0  0  0
   18.4622  -16.7085    0.0000 C   0  0  3  0  0  0  0  0  0  0  0  0
   15.5959  -15.3103    0.0000 C   0  0  0  0  0  0  0  0  0  0  0  0
   16.8543  -14.6811    0.0000 C   0  0  0  0  0  0  0  0  0  0  0  0
   18.1127  -15.3103    0.0000 C   0  0  0  0  0  0  0  0  0  0  0  0
   15.3163  -16.6385    0.0000 N   0  0  3  0  0  0  0  0  0  0  0  0
   16.1552  -17.7571    0.0000 C   0  0  0  0  0  0  0  0  0  0  0  0
   17.5534  -17.7571    0.0000 C   0  0  0  0  0  0  0  0  0  0  0  0
   13.9181  -16.9881    0.0000 C   0  0  0  0  0  0  0  0  0  0  0  0
   17.9158  -19.1094    0.0000 C   0  0  0  0  0  0  0  0  0  0  0  0
   19.8145  -16.3461    0.0000 O   0  0  0  0  0  0  0  0  0  0  0  0
   21.0270  -17.0461    0.0000 C   0  0  0  0  0  0  0  0  0  0  0  0
   22.2394  -16.3461    0.0000 C   0  0  0  0  0  0  0  0  0  0  0  0
   23.4518  -17.0461    0.0000 C   0  0  0  0  0  0  0  0  0  0  0  0
   21.0270  -18.4461    0.0000 O   0  0  0  0  0  0  0  0  0  0  0  0
  1  7  1  0     0  0
  1  2  2  0     0  0
  8  9  1  0     0  0
  2  3  1  0     0  0
  9 10  1  0     0  0
  3  4  2  0     0  0
  8 11  1  0     0  0
 10  7  1  0     0  0
  4  5  1  0     0  0
 11 12  1  0     0  0
  5  6  2  0     0  0
  7 13  1  0     0  0
 12 13  1  0     0  0
  6  1  1  0     0  0
 11 14  1  0     0  0
 13 15  1  0     0  0
  7 16  1  0     0  0
 16 17  1  0     0  0
 17 18  1  0     0  0
 18 19  1  0     0  0
 17 20  2  0     0  0
M  END
