 
 
 
 39 41  0  0  0  0  0  0  0  0999 V2000
   21.0626  -12.5256    0.0000 O   0  0  0  0  0  0  0  0  0  0  0  0
   22.2522  -13.2254    0.0000 C   0  0  0  0  0  0  0  0  0  0  0  0
   22.2522  -14.6249    0.0000 C   0  0  0  0  0  0  0  0  0  0  0  0
   23.5118  -15.3246    0.0000 C   0  0  0  0  0  0  0  0  0  0  0  0
   24.7014  -14.6249    0.0000 C   0  0  0  0  0  0  0  0  0  0  0  0
   24.7014  -13.2254    0.0000 C   0  0  0  0  0  0  0  0  0  0  0  0
   23.5118  -12.5256    0.0000 C   0  0  0  0  0  0  0  0  0  0  0  0
   23.5118  -16.7242    0.0000 C   0  0  0  0  0  0  0  0  0  0  0  0
   25.9609  -15.3246    0.0000 O   0  0  0  0  0  0  0  0  0  0  0  0
   27.1505  -14.6249    0.0000 C   0  0  0  0  0  0  0  0  0  0  0  0
   28.3401  -15.3246    0.0000 C   0  0  0  0  0  0  0  0  0  0  0  0
   29.5297  -14.6249    0.0000 O   0  5  0  0  0  0  0  0  0  0  0  0
   28.3401  -16.7242    0.0000 O   0  0  0  0  0  0  0  0  0  0  0  0
   19.8731  -13.1554    0.0000 C   0  0  0  0  0  0  0  0  0  0  0  0
   19.8731  -14.5549    0.0000 C   0  0  0  0  0  0  0  0  0  0  0  0
   18.6835  -15.2547    0.0000 C   0  0  0  0  0  0  0  0  0  0  0  0
   17.4939  -14.6249    0.0000 C   0  0  0  0  0  0  0  0  0  0  0  0
   18.6835  -16.7242    0.0000 C   0  0  0  0  0  0  0  0  0  0  0  0
   17.4939  -17.3539    0.0000 C   0  0  0  0  0  0  0  0  0  0  0  0
   17.4939  -18.7534    0.0000 C   0  0  0  0  0  0  0  0  0  0  0  0
   18.6835  -19.4532    0.0000 C   0  0  0  0  0  0  0  0  0  0  0  0
   19.8731  -18.8234    0.0000 C   0  0  0  0  0  0  0  0  0  0  0  0
   19.8731  -17.4239    0.0000 C   0  0  0  0  0  0  0  0  0  0  0  0
   18.6835  -20.9227    0.0000 F   0  0  0  0  0  0  0  0  0  0  0  0
   17.4939  -13.1554    0.0000 C   0  0  0  0  0  0  0  0  0  0  0  0
   16.3043  -12.4556    0.0000 C   0  0  0  0  0  0  0  0  0  0  0  0
   15.0447  -13.1554    0.0000 C   0  0  0  0  0  0  0  0  0  0  0  0
   15.0447  -14.6249    0.0000 C   0  0  0  0  0  0  0  0  0  0  0  0
   16.3043  -15.3246    0.0000 C   0  0  0  0  0  0  0  0  0  0  0  0
   13.8552  -12.4556    0.0000 C   0  0  0  0  0  0  0  0  0  0  0  0
   12.6656  -11.7559    0.0000 C   0  0  0  0  0  0  0  0  0  0  0  0
   11.4060  -11.0561    0.0000 C   0  0  0  0  0  0  0  0  0  0  0  0
   10.2164  -11.7559    0.0000 N   0  0  0  0  0  0  0  0  0  0  0  0
    9.0268  -11.1261    0.0000 C   0  0  0  0  0  0  0  0  0  0  0  0
    7.7673  -11.8259    0.0000 C   0  0  0  0  0  0  0  0  0  0  0  0
    7.7673  -13.2254    0.0000 O   0  0  0  0  0  0  0  0  0  0  0  0
    9.0268  -13.8552    0.0000 C   0  0  0  0  0  0  0  0  0  0  0  0
   10.2164  -13.1554    0.0000 C   0  0  0  0  0  0  0  0  0  0  0  0
   29.0500  -12.5335    0.0000 Na  0  3  0  0  0  0  0  0  0  0  0  0
  1  2  1  0     0  0
  2  3  2  0     0  0
  3  4  1  0     0  0
  4  5  2  0     0  0
  5  6  1  0     0  0
  6  7  2  0     0  0
  2  7  1  0     0  0
  4  8  1  0     0  0
  5  9  1  0     0  0
  9 10  1  0     0  0
 10 11  1  0     0  0
 11 12  1  0     0  0
 11 13  2  0     0  0
  1 14  1  0     0  0
 14 15  1  0     0  0
 15 16  2  0     0  0
 16 17  1  0     0  0
 16 18  1  0     0  0
 18 19  2  0     0  0
 19 20  1  0     0  0
 20 21  2  0     0  0
 21 22  1  0     0  0
 22 23  2  0     0  0
 18 23  1  0     0  0
 21 24  1  0     0  0
 17 25  2  0     0  0
 25 26  1  0     0  0
 26 27  2  0     0  0
 27 28  1  0     0  0
 28 29  2  0     0  0
 17 29  1  0     0  0
 27 30  1  0     0  0
 30 31  3  0     0  0
 31 32  1  0     0  0
 32 33  1  0     0  0
 33 34  1  0     0  0
 34 35  1  0     0  0
 35 36  1  0     0  0
 36 37  1  0     0  0
 37 38  1  0     0  0
 33 38  1  0     0  0
M  CHG  2  12  -1  39   1
M  END
