 
 
 
 23 24  0  0  1  0  0  0  0  0999 V2000
   15.4605  -17.3494    0.0000 C   0  0  0  0  0  0  0  0  0  0  0  0
   15.4605  -18.6785    0.0000 C   0  0  0  0  0  0  0  0  0  0  0  0
   16.6498  -19.3781    0.0000 C   0  0  0  0  0  0  0  0  0  0  0  0
   17.8391  -18.6785    0.0000 C   0  0  0  0  0  0  0  0  0  0  0  0
   17.8391  -17.3494    0.0000 C   0  0  0  0  0  0  0  0  0  0  0  0
   16.6498  -16.6498    0.0000 C   0  0  0  0  0  0  0  0  0  0  0  0
   20.2176  -18.6785    0.0000 C   0  0  0  0  0  0  0  0  0  0  0  0
   20.2176  -17.3494    0.0000 C   0  0  0  0  0  0  0  0  0  0  0  0
   19.0283  -16.6498    0.0000 C   0  0  0  0  0  0  0  0  0  0  0  0
   21.3369  -19.3781    0.0000 C   0  0  0  0  0  0  0  0  0  0  0  0
   22.5262  -18.6785    0.0000 C   0  0  0  0  0  0  0  0  0  0  0  0
   22.5262  -17.3494    0.0000 C   0  0  0  0  0  0  0  0  0  0  0  0
   21.3369  -16.6498    0.0000 C   0  0  0  0  0  0  0  0  0  0  0  0
   19.0283  -15.2507    0.0000 C   0  0  0  0  0  0  0  0  0  0  0  0
   20.2176  -14.6210    0.0000 C   0  0  0  0  0  0  0  0  0  0  0  0
   16.9996  -15.5305    0.0000 C   0  0  0  0  0  0  0  0  0  0  0  0
   21.3369  -15.2507    0.0000 C   0  0  0  0  0  0  0  0  0  0  0  0
   15.8103  -16.2301    0.0000 C   0  0  0  0  0  0  0  0  0  0  0  0
   14.6910  -15.5305    0.0000 C   0  0  0  0  0  0  0  0  0  0  0  0
   20.2176  -13.2219    0.0000 N   0  0  0  0  0  0  0  0  0  0  0  0
   21.3369  -12.5224    0.0000 C   0  0  0  0  0  0  0  0  0  0  0  0
   18.9584  -12.5224    0.0000 C   0  0  0  0  0  0  0  0  0  0  0  0
   16.9996  -14.1305    0.0000 O   0  0  0  0  0  0  0  0  0  0  0  0
  1  2  2  0     0  0
  2  3  1  0     0  0
  3  4  2  0     0  0
  4  5  1  0     0  0
  5  6  2  0     0  0
  1  6  1  0     0  0
  7  8  1  0     0  0
  8  9  1  0     0  0
  5  9  1  0     0  0
  7 10  2  0     0  0
 10 11  1  0     0  0
 11 12  2  0     0  0
 12 13  1  0     0  0
  8 13  2  0     0  0
  9 14  1  0     0  0
 14 15  1  0     0  0
  9 16  1  0     0  0
 15 17  1  0     0  0
 16 18  1  0     0  0
 18 19  1  0     0  0
 20 21  1  0     0  0
 20 22  1  0     0  0
 15 20  1  6     0  0
 16 23  1  6     0  0
M  END
