 
 
 
 53 58  0  0  1  0  0  0  0  0999 V2000
   25.0089  -13.5903    0.0000 C   0  0  0  0  0  0  0  0  0  0  0  0
   26.1998  -14.2908    0.0000 N   0  0  0  0  0  0  0  0  0  0  0  0
   23.8180  -14.2908    0.0000 C   0  0  0  0  0  0  0  0  0  0  0  0
   25.0089  -12.1892    0.0000 O   0  0  0  0  0  0  0  0  0  0  0  0
   22.6972  -13.5903    0.0000 C   0  0  0  0  0  0  0  0  0  0  0  0
   21.4362  -14.2908    0.0000 C   0  0  0  0  0  0  0  0  0  0  0  0
   21.4362  -15.6218    0.0000 C   0  0  0  0  0  0  0  0  0  0  0  0
   22.6271  -16.3223    0.0000 C   0  0  0  0  0  0  0  0  0  0  0  0
   23.8180  -15.6218    0.0000 O   0  0  0  0  0  0  0  0  0  0  0  0
   20.2453  -16.3223    0.0000 N   0  0  0  0  0  0  0  0  0  0  0  0
   19.1245  -15.6218    0.0000 C   0  0  0  0  0  0  0  0  0  0  0  0
   19.1245  -14.2908    0.0000 O   0  0  0  0  0  0  0  0  0  0  0  0
   17.9336  -16.3223    0.0000 C   0  0  0  0  0  0  0  0  0  0  0  0
   12.2593  -17.5133    0.0000 C   0  0  0  0  0  0  0  0  0  0  0  0
   12.2593  -18.8443    0.0000 C   0  0  0  0  0  0  0  0  0  0  0  0
   13.3801  -19.5448    0.0000 C   0  0  0  0  0  0  0  0  0  0  0  0
   14.6411  -18.8443    0.0000 C   0  0  0  0  0  0  0  0  0  0  0  0
   14.6411  -17.5133    0.0000 C   0  0  0  0  0  0  0  0  0  0  0  0
   13.3801  -16.8127    0.0000 C   0  0  0  0  0  0  0  0  0  0  0  0
   15.6919  -16.6026    0.0000 C   0  0  0  0  0  0  0  0  0  0  0  0
   15.0614  -15.2716    0.0000 C   0  0  0  0  0  0  0  0  0  0  0  0
   13.6603  -15.4117    0.0000 N   0  0  0  0  0  0  0  0  0  0  0  0
   16.1822  -17.8635    0.0000 C   0  0  0  0  0  0  0  0  0  0  0  0
   17.5833  -17.7234    0.0000 N   0  0  0  0  0  0  0  0  0  0  0  0
   16.6726  -15.6218    0.0000 C   0  0  0  0  0  0  0  0  0  0  0  0
   15.0614  -18.4940    0.0000 C   0  0  0  0  0  0  0  0  0  0  0  0
   15.0614  -19.8951    0.0000 C   0  0  0  0  0  0  0  0  0  0  0  0
   16.1822  -20.5956    0.0000 C   0  0  0  0  0  0  0  0  0  0  0  0
   17.4432  -19.8951    0.0000 C   0  0  0  0  0  0  0  0  0  0  0  0
   17.4432  -18.4940    0.0000 C   0  0  0  0  0  0  0  0  0  0  0  0
   11.0684  -19.5448    0.0000 Cl  0  0  0  0  0  0  0  0  0  0  0  0
   15.6919  -14.0807    0.0000 O   0  0  0  0  0  0  0  0  0  0  0  0
   16.5325  -13.3101    0.0000 C   0  0  0  0  0  0  0  0  0  0  0  0
   17.7234  -12.5395    0.0000 C   0  0  0  0  0  0  0  0  0  0  0  0
   17.5833  -11.1384    0.0000 C   0  0  0  0  0  0  0  0  0  0  0  0
   16.3924  -10.5780    0.0000 N   0  0  0  0  0  0  0  0  0  0  0  0
   15.2015  -11.3486    0.0000 C   0  0  0  0  0  0  0  0  0  0  0  0
   15.2716  -12.6796    0.0000 C   0  0  0  0  0  0  0  0  0  0  0  0
   18.9143  -13.1700    0.0000 F   0  0  0  0  0  0  0  0  0  0  0  0
   18.7042  -10.4379    0.0000 Cl  0  0  0  0  0  0  0  0  0  0  0  0
   15.2015  -21.5763    0.0000 C   0  0  0  0  0  0  0  0  0  0  0  0
   17.2330  -21.5763    0.0000 C   0  0  0  0  0  0  0  0  0  0  0  0
   29.0500  -17.9900    0.0000 C   0  0  0  0  0  0  0  0  0  0  0  0
   29.0500  -19.3900    0.0000 C   0  0  0  0  0  0  0  0  0  0  0  0
   30.2624  -20.0900    0.0000 C   0  0  0  0  0  0  0  0  0  0  0  0
   31.4749  -19.3900    0.0000 C   0  0  0  0  0  0  0  0  0  0  0  0
   31.4749  -17.9900    0.0000 C   0  0  0  0  0  0  0  0  0  0  0  0
   30.2624  -17.2900    0.0000 C   0  0  0  0  0  0  0  0  0  0  0  0
   30.2624  -21.4898    0.0000 C   0  0  0  0  0  0  0  0  0  0  0  0
   30.2624  -15.8902    0.0000 S   0  0  0  0  0  0  0  0  0  0  0  0
   28.8624  -15.8902    0.0000 O   0  0  0  0  0  0  0  0  0  0  0  0
   31.6624  -15.8902    0.0000 O   0  0  0  0  0  0  0  0  0  0  0  0
   30.2624  -14.4902    0.0000 O   0  0  0  0  0  0  0  0  0  0  0  0
  1  2  1  0     0  0
  3  1  1  1     0  0
  1  4  2  0     0  0
  3  5  1  0     0  0
  5  6  1  0     0  0
  6  7  1  0     0  0
  7  8  1  0     0  0
  8  9  1  0     0  0
  3  9  1  0     0  0
  7 10  1  6     0  0
 10 11  1  0     0  0
 11 12  2  0     0  0
 13 11  1  6     0  0
 14 15  2  0     0  0
 15 16  1  0     0  0
 16 17  2  0     0  0
 17 18  1  0     0  0
 18 19  2  0     0  0
 14 19  1  0     0  0
 20 18  1  6     0  0
 20 21  1  1     0  0
 21 22  1  0     0  0
 19 22  1  0     0  0
 20 23  1  0     0  0
 23 24  1  0     0  0
 24 13  1  0     0  0
 13 25  1  0     0  0
 20 25  1  0     0  0
 26 27  1  0     0  0
 27 28  1  0     0  0
 28 29  1  0     0  0
 29 30  1  0     0  0
 30 23  1  0     0  0
 26 23  1  0     0  0
 15 31  1  0     0  0
 21 32  2  0     0  0
 25 33  1  1     0  0
 33 34  2  0     0  0
 34 35  1  0     0  0
 35 36  2  0     0  0
 36 37  1  0     0  0
 37 38  2  0     0  0
 33 38  1  0     0  0
 34 39  1  0     0  0
 35 40  1  0     0  0
 28 41  1  0     0  0
 28 42  1  0     0  0
 43 44  2  0     0  0
 44 45  1  0     0  0
 45 46  2  0     0  0
 46 47  1  0     0  0
 47 48  2  0     0  0
 43 48  1  0     0  0
 45 49  1  0     0  0
 48 50  1  0     0  0
 50 51  2  0     0  0
 50 52  2  0     0  0
 50 53  1  0     0  0
M  END
