 
 
 
 18 19  0  0  0  0  0  0  0  0999 V2000
   15.8424  -14.2800    0.0000 C   0  0  0  0  0  0  0  0  0  0  0  0
   15.8424  -15.6800    0.0000 C   0  0  0  0  0  0  0  0  0  0  0  0
   17.0549  -16.3800    0.0000 C   0  0  0  0  0  0  0  0  0  0  0  0
   14.6300  -16.3800    0.0000 C   0  0  0  0  0  0  0  0  0  0  0  0
   13.4176  -15.6800    0.0000 C   0  0  0  0  0  0  0  0  0  0  0  0
   13.4176  -14.2800    0.0000 C   0  0  0  0  0  0  0  0  0  0  0  0
   12.2051  -16.3800    0.0000 N   0  0  0  0  0  0  0  0  0  0  0  0
   12.2051  -18.1300    0.0000 C   0  0  0  0  0  0  0  0  0  0  0  0
   10.9927  -15.6800    0.0000 C   0  0  0  0  0  0  0  0  0  0  0  0
    9.7803  -16.3800    0.0000 C   0  0  0  0  0  0  0  0  0  0  0  0
   17.2014  -17.7747    0.0000 C   0  0  0  0  0  0  0  0  0  0  0  0
   18.5732  -18.0663    0.0000 C   0  0  0  0  0  0  0  0  0  0  0  0
   19.2744  -16.8518    0.0000 C   0  0  0  0  0  0  0  0  0  0  0  0
   18.3361  -15.8096    0.0000 S   0  0  0  0  0  0  0  0  0  0  0  0
   16.9602  -13.4677    0.0000 S   0  0  0  0  0  0  0  0  0  0  0  0
   16.5331  -12.1536    0.0000 C   0  0  0  0  0  0  0  0  0  0  0  0
   15.1513  -12.1537    0.0000 C   0  0  0  0  0  0  0  0  0  0  0  0
   14.7244  -13.4679    0.0000 C   0  0  0  0  0  0  0  0  0  0  0  0
  1  2  1  0     0  0
  2  3  1  0     0  0
  2  4  2  0     0  0
  4  5  1  0     0  0
  5  6  1  0     0  0
  5  7  1  0     0  0
  7  8  1  0     0  0
  7  9  1  0     0  0
  9 10  1  0     0  0
  3 11  2  0     0  0
 11 12  1  0     0  0
 12 13  2  0     0  0
 13 14  1  0     0  0
  3 14  1  0     0  0
  1 15  1  0     0  0
 15 16  1  0     0  0
 16 17  2  0     0  0
 17 18  1  0     0  0
  1 18  2  0     0  0
M  END
