 
 
 
 29 31  0  0  0  0  0  0  0  0999 V2000
   14.4383  -15.4900    0.0000 C   0  0  0  0  0  0  0  0  0  0  0  0
   14.4383  -16.8918    0.0000 C   0  0  0  0  0  0  0  0  0  0  0  0
   15.6299  -17.5927    0.0000 C   0  0  0  0  0  0  0  0  0  0  0  0
   16.8916  -16.8918    0.0000 C   0  0  0  0  0  0  0  0  0  0  0  0
   16.8916  -15.4900    0.0000 C   0  0  0  0  0  0  0  0  0  0  0  0
   15.6299  -14.7891    0.0000 C   0  0  0  0  0  0  0  0  0  0  0  0
   18.2233  -17.3123    0.0000 N   0  0  0  0  0  0  0  0  0  0  0  0
   18.9944  -16.1909    0.0000 C   0  0  0  0  0  0  0  0  0  0  0  0
   18.2233  -15.0694    0.0000 N   0  0  0  0  0  0  0  0  0  0  0  0
   20.3962  -16.1909    0.0000 C   0  0  0  0  0  0  0  0  0  0  0  0
   21.0970  -17.3825    0.0000 C   0  0  0  0  0  0  0  0  0  0  0  0
   20.3962  -18.6441    0.0000 C   0  0  0  0  0  0  0  0  0  0  0  0
   21.0970  -19.8356    0.0000 C   0  0  0  0  0  0  0  0  0  0  0  0
   22.4989  -19.8356    0.0000 C   0  0  0  0  0  0  0  0  0  0  0  0
   23.1998  -18.6441    0.0000 C   0  0  0  0  0  0  0  0  0  0  0  0
   22.4989  -17.3825    0.0000 C   0  0  0  0  0  0  0  0  0  0  0  0
   13.2468  -17.5927    0.0000 N   0  3  0  0  0  0  0  0  0  0  0  0
   11.9851  -16.8918    0.0000 O   0  5  0  0  0  0  0  0  0  0  0  0
   13.2468  -18.9946    0.0000 O   0  0  0  0  0  0  0  0  0  0  0  0
   23.1998  -21.0272    0.0000 O   0  0  0  0  0  0  0  0  0  0  0  0
   18.5738  -13.6676    0.0000 C   0  0  0  0  0  0  0  0  0  0  0  0
   19.9055  -13.3171    0.0000 C   0  0  0  0  0  0  0  0  0  0  0  0
   20.2560  -11.9854    0.0000 N   0  0  0  0  0  0  0  0  0  0  0  0
   24.6024  -21.0272    0.0000 C   0  0  0  0  0  0  0  0  0  0  0  0
   25.3037  -22.2419    0.0000 C   0  0  0  0  0  0  0  0  0  0  0  0
   21.6181  -11.6138    0.0000 C   0  0  0  0  0  0  0  0  0  0  0  0
   19.2690  -11.0072    0.0000 C   0  0  0  0  0  0  0  0  0  0  0  0
   21.9667  -10.2877    0.0000 C   0  0  0  0  0  0  0  0  0  0  0  0
   19.6261   -9.6498    0.0000 C   0  0  0  0  0  0  0  0  0  0  0  0
  1  2  2  0     0  0
  2  3  1  0     0  0
  3  4  2  0     0  0
  4  5  1  0     0  0
  5  6  2  0     0  0
  1  6  1  0     0  0
  4  7  1  0     0  0
  7  8  2  0     0  0
  8  9  1  0     0  0
  5  9  1  0     0  0
  8 10  1  0     0  0
 10 11  1  0     0  0
 11 12  2  0     0  0
 12 13  1  0     0  0
 13 14  2  0     0  0
 14 15  1  0     0  0
 15 16  2  0     0  0
 11 16  1  0     0  0
  2 17  1  0     0  0
 17 18  1  0     0  0
 17 19  2  0     0  0
 14 20  1  0     0  0
  9 21  1  0     0  0
 21 22  1  0     0  0
 22 23  1  0     0  0
 20 24  1  0     0  0
 24 25  1  0     0  0
 23 26  1  0     0  0
 23 27  1  0     0  0
 26 28  1  0     0  0
 27 29  1  0     0  0
M  CHG  2  17   1  18  -1
M  END
