 
 
 
 39 43  0  0  1  0  0  0  0  0999 V2000
   25.2700  -12.7400    0.0000 C   0  0  0  0  0  0  0  0  0  0  0  0
   25.2700  -11.3400    0.0000 C   0  0  0  0  0  0  0  0  0  0  0  0
   24.0800  -10.6400    0.0000 C   0  0  0  0  0  0  0  0  0  0  0  0
   22.8200  -11.3400    0.0000 C   0  0  0  0  0  0  0  0  0  0  0  0
   22.8200  -12.7400    0.0000 C   0  0  0  0  0  0  0  0  0  0  0  0
   24.0800  -13.4400    0.0000 N   0  0  0  0  0  0  0  0  0  0  0  0
   21.6300  -13.4400    0.0000 O   0  0  0  0  0  0  0  0  0  0  0  0
   26.4600  -13.4400    0.0000 C   0  0  0  0  0  0  0  0  0  0  0  0
   24.0800   -9.2400    0.0000 S   0  0  0  0  0  0  0  0  0  0  0  0
   25.2700   -8.5400    0.0000 C   0  0  0  0  0  0  0  0  0  0  0  0
   21.6300  -10.6400    0.0000 C   0  0  0  0  0  0  0  0  0  0  0  0
   20.4400  -11.3400    0.0000 N   0  0  0  0  0  0  0  0  0  0  0  0
   19.2500  -10.6400    0.0000 C   0  0  0  0  0  0  0  0  0  0  0  0
   18.0600  -11.3400    0.0000 C   0  0  0  0  0  0  0  0  0  0  0  0
   19.2500   -9.2400    0.0000 O   0  0  0  0  0  0  0  0  0  0  0  0
   16.8700  -10.6400    0.0000 C   0  0  0  0  0  0  0  0  0  0  0  0
   15.6100  -11.3400    0.0000 C   0  0  0  0  0  0  0  0  0  0  0  0
   15.6100  -12.7400    0.0000 C   0  0  0  0  0  0  0  0  0  0  0  0
   16.8000  -13.4400    0.0000 C   0  0  0  0  0  0  0  0  0  0  0  0
   18.0600  -12.7400    0.0000 C   0  0  0  0  0  0  0  0  0  0  0  0
   16.8000  -14.8400    0.0000 Cl  0  0  0  0  0  0  0  0  0  0  0  0
   16.8700   -9.2400    0.0000 C   0  0  0  0  0  0  0  0  0  0  0  0
   14.2800  -10.9200    0.0000 O   0  0  0  0  0  0  0  0  0  0  0  0
   13.5100  -12.0400    0.0000 C   0  0  0  0  0  0  0  0  0  0  0  0
   14.2800  -13.1600    0.0000 O   0  0  0  0  0  0  0  0  0  0  0  0
   12.2500  -12.7400    0.0000 C   0  0  0  0  0  0  0  0  0  0  0  0
   12.4600  -11.0600    0.0000 C   0  0  0  0  0  0  0  0  0  0  0  0
   11.0600  -12.0400    0.0000 C   0  0  0  0  0  0  0  0  0  0  0  0
    9.8000  -12.7400    0.0000 C   0  0  0  0  0  0  0  0  0  0  0  0
    9.8000  -14.1400    0.0000 C   0  0  0  0  0  0  0  0  0  0  0  0
   11.0600  -14.8400    0.0000 C   0  0  0  0  0  0  0  0  0  0  0  0
   12.2500  -14.1400    0.0000 C   0  0  0  0  0  0  0  0  0  0  0  0
   13.2300  -13.7200    0.0000 H   0  0  0  0  0  0  0  0  0  0  0  0
    8.6100  -14.8400    0.0000 N   0  0  0  0  0  0  0  0  0  0  0  0
    7.2800  -14.4900    0.0000 C   0  0  0  0  0  0  0  0  0  0  0  0
    6.9300  -15.8200    0.0000 C   0  0  0  0  0  0  0  0  0  0  0  0
    8.2600  -16.1700    0.0000 C   0  0  0  0  0  0  0  0  0  0  0  0
    5.7400  -16.5200    0.0000 O   0  0  0  0  0  0  0  0  0  0  0  0
    4.5500  -15.8200    0.0000 C   0  0  0  0  0  0  0  0  0  0  0  0
  1  2  2  0     0  0
  2  3  1  0     0  0
  3  4  2  0     0  0
  4  5  1  0     0  0
  5  6  1  0     0  0
  1  6  1  0     0  0
  5  7  2  0     0  0
  1  8  1  0     0  0
  3  9  1  0     0  0
  9 10  1  0     0  0
  4 11  1  0     0  0
 11 12  1  0     0  0
 12 13  1  0     0  0
 13 14  1  0     0  0
 13 15  2  0     0  0
 14 16  1  0     0  0
 16 17  2  0     0  0
 17 18  1  0     0  0
 18 19  2  0     0  0
 14 20  2  0     0  0
 19 21  1  0     0  0
 16 22  1  0     0  0
 17 23  1  0     0  0
 23 24  1  0     0  0
 24 25  1  0     0  0
 18 25  1  0     0  0
 19 20  1  0     0  0
 24 26  1  0     0  0
 24 27  1  1     0  0
 26 28  1  0     0  0
 28 29  1  0     0  0
 29 30  1  0     0  0
 30 31  1  0     0  0
 31 32  1  0     0  0
 26 32  1  0     0  0
 26 33  1  6     0  0
 30 34  1  6     0  0
 34 35  1  0     0  0
 35 36  1  0     0  0
 36 37  1  0     0  0
 34 37  1  0     0  0
 36 38  1  0     0  0
 38 39  1  0     0  0
M  END
