 
 
 
 23 27  0  0  1  0  0  0  0  0999 V2000
   17.4413  -16.5934    0.0000 C   0  0  2  0  0  0  0  0  0  0  0  0
   17.4413  -15.3225    0.0000 C   0  0  0  0  0  0  0  0  0  0  0  0
   18.6416  -17.2995    0.0000 C   0  0  2  0  0  0  0  0  0  0  0  0
   16.3116  -17.2289    0.0000 C   0  0  1  0  0  0  0  0  0  0  0  0
   18.6416  -15.9580    0.0000 C   0  0  0  0  0  0  0  0  0  0  0  0
   16.3116  -14.6870    0.0000 C   0  0  0  0  0  0  0  0  0  0  0  0
   18.6416  -14.6870    0.0000 C   0  0  0  0  0  0  0  0  0  0  0  0
   19.7007  -16.5934    0.0000 C   0  0  1  0  0  0  0  0  0  0  0  0
   18.6416  -18.5703    0.0000 C   0  0  0  0  0  0  0  0  0  0  0  0
   14.9701  -15.8874    0.0000 O   0  0  0  0  0  0  0  0  0  0  0  0
   16.3116  -18.5703    0.0000 C   0  0  2  0  0  0  0  0  0  0  0  0
   20.8304  -15.9580    0.0000 C   0  0  0  0  0  0  0  0  0  0  0  0
   16.3116  -13.3455    0.0000 C   0  0  0  0  0  0  0  0  0  0  0  0
   19.7007  -15.3931    0.0000 C   0  0  0  0  0  0  0  0  0  0  0  0
   18.6416  -13.3455    0.0000 C   0  0  0  0  0  0  0  0  0  0  0  0
   20.8304  -17.2995    0.0000 N   0  0  3  0  0  0  0  0  0  0  0  0
   17.4413  -19.2765    0.0000 C   0  0  0  0  0  0  0  0  0  0  0  0
   15.1819  -19.2765    0.0000 O   0  0  0  0  0  0  0  0  0  0  0  0
   17.5119  -12.7100    0.0000 C   0  0  0  0  0  0  0  0  0  0  0  0
   15.1819  -12.7100    0.0000 O   0  0  0  0  0  0  0  0  0  0  0  0
   19.8419  -18.2173    0.0000 H   0  0  0  0  0  0  0  0  0  0  0  0
   22.2425  -17.2995    0.0000 C   0  0  0  0  0  0  0  0  0  0  0  0
   15.1456  -17.7942    0.0000 C   0  0  0  0  0  0  0  0  0  0  0  0
  1  2  1  0     0  0
  1  3  1  0     0  0
  1  4  1  0     0  0
  1  5  1  1     0  0
  2  6  2  0     0  0
  2  7  1  0     0  0
  3  8  1  0     0  0
  3  9  1  0     0  0
  4 10  1  6     0  0
  4 11  1  0     0  0
  5 12  1  0     0  0
  6 13  1  0     0  0
  7 14  1  0     0  0
  7 15  2  0     0  0
  8 16  1  1     0  0
  9 17  1  0     0  0
 11 18  2  6     0  0
 13 19  2  0     0  0
 13 20  1  0     0  0
  6 10  1  0     0  0
  8 14  1  0     0  0
 11 17  1  0     0  0
 12 16  1  0     0  0
 15 19  1  0     0  0
  3 21  1  1     0  0
 16 22  1  0     0  0
  4 23  1  0     0  0
M  END
