 
 
 
 26 28  0  0  0  0  0  0  0  0999 V2000
   15.5238  -18.3837    0.0000 C   0  0  0  0  0  0  0  0  0  0  0  0
   15.5238  -19.7759    0.0000 C   0  0  0  0  0  0  0  0  0  0  0  0
   16.7072  -20.4720    0.0000 C   0  0  0  0  0  0  0  0  0  0  0  0
   17.8906  -19.7759    0.0000 C   0  0  0  0  0  0  0  0  0  0  0  0
   17.8906  -18.3837    0.0000 C   0  0  0  0  0  0  0  0  0  0  0  0
   16.7072  -17.7572    0.0000 C   0  0  0  0  0  0  0  0  0  0  0  0
   20.1877  -19.7759    0.0000 C   0  0  0  0  0  0  0  0  0  0  0  0
   20.1877  -18.3837    0.0000 C   0  0  0  0  0  0  0  0  0  0  0  0
   19.0043  -17.7572    0.0000 C   0  0  0  0  0  0  0  0  0  0  0  0
   21.3710  -20.4720    0.0000 C   0  0  0  0  0  0  0  0  0  0  0  0
   22.5544  -19.7759    0.0000 C   0  0  0  0  0  0  0  0  0  0  0  0
   22.5544  -18.3837    0.0000 C   0  0  0  0  0  0  0  0  0  0  0  0
   21.3710  -17.7572    0.0000 C   0  0  0  0  0  0  0  0  0  0  0  0
   19.0043  -16.3650    0.0000 C   0  0  0  0  0  0  0  0  0  0  0  0
   20.1877  -15.6689    0.0000 C   0  0  0  0  0  0  0  0  0  0  0  0
   17.0553  -16.6434    0.0000 C   0  0  0  0  0  0  0  0  0  0  0  0
   17.0553  -15.3209    0.0000 O   0  0  0  0  0  0  0  0  0  0  0  0
   15.8719  -17.3395    0.0000 C   0  0  0  0  0  0  0  0  0  0  0  0
   14.7581  -16.6434    0.0000 C   0  0  0  0  0  0  0  0  0  0  0  0
   20.1877  -14.2763    0.0000 N   0  0  0  0  0  0  0  0  0  0  0  0
   21.3938  -16.3652    0.0000 C   0  0  0  0  0  0  0  0  0  0  0  0
   21.3966  -13.5782    0.0000 C   0  0  0  0  0  0  0  0  0  0  0  0
   21.3966  -12.1856    0.0000 C   0  0  0  0  0  0  0  0  0  0  0  0
   20.1906  -11.4892    0.0000 O   0  0  0  0  0  0  0  0  0  0  0  0
   18.9816  -12.1873    0.0000 C   0  0  0  0  0  0  0  0  0  0  0  0
   18.9816  -13.5799    0.0000 C   0  0  0  0  0  0  0  0  0  0  0  0
  1  2  2  0     0  0
  2  3  1  0     0  0
  3  4  2  0     0  0
  4  5  1  0     0  0
  5  6  2  0     0  0
  1  6  1  0     0  0
  7  8  1  0     0  0
  8  9  1  0     0  0
  5  9  1  0     0  0
  7 10  2  0     0  0
 10 11  1  0     0  0
 11 12  2  0     0  0
 12 13  1  0     0  0
  8 13  2  0     0  0
  9 14  1  0     0  0
 14 15  1  0     0  0
  9 16  1  0     0  0
 16 17  2  0     0  0
 16 18  1  0     0  0
 18 19  1  0     0  0
 15 20  1  0     0  0
 15 21  1  0     0  0
 20 22  1  0     0  0
 22 23  1  0     0  0
 23 24  1  0     0  0
 24 25  1  0     0  0
 25 26  1  0     0  0
 20 26  1  0     0  0
M  END
