 
 
 
 22 26  0  0  1  0  0  0  0  0999 V2000
   17.5314  -16.6232    0.0000 C   0  0  2  0  0  0  0  0  0  0  0  0
   17.5314  -15.2962    0.0000 C   0  0  0  0  0  0  0  0  0  0  0  0
   18.7187  -17.2518    0.0000 C   0  0  2  0  0  0  0  0  0  0  0  0
   16.3440  -17.1820    0.0000 C   0  0  1  0  0  0  0  0  0  0  0  0
   18.7187  -15.9946    0.0000 C   0  0  0  0  0  0  0  0  0  0  0  0
   16.3440  -14.6675    0.0000 C   0  0  0  0  0  0  0  0  0  0  0  0
   18.7187  -14.6675    0.0000 C   0  0  0  0  0  0  0  0  0  0  0  0
   19.8363  -16.6232    0.0000 C   0  0  1  0  0  0  0  0  0  0  0  0
   18.7187  -18.5090    0.0000 C   0  0  0  0  0  0  0  0  0  0  0  0
   15.0169  -15.9248    0.0000 O   0  0  0  0  0  0  0  0  0  0  0  0
   16.3440  -18.5090    0.0000 C   0  0  2  0  0  0  0  0  0  0  0  0
   20.8839  -15.9946    0.0000 C   0  0  0  0  0  0  0  0  0  0  0  0
   16.3440  -13.3405    0.0000 C   0  0  0  0  0  0  0  0  0  0  0  0
   19.8363  -15.3660    0.0000 C   0  0  0  0  0  0  0  0  0  0  0  0
   18.7187  -13.3405    0.0000 C   0  0  0  0  0  0  0  0  0  0  0  0
   20.8839  -17.2518    0.0000 N   0  0  3  0  0  0  0  0  0  0  0  0
   17.5314  -19.2075    0.0000 C   0  0  0  0  0  0  0  0  0  0  0  0
   17.6012  -12.7119    0.0000 C   0  0  0  0  0  0  0  0  0  0  0  0
   15.2265  -12.7119    0.0000 O   0  0  0  0  0  0  0  0  0  0  0  0
   19.9760  -18.1598    0.0000 O   0  0  0  0  0  0  0  0  0  0  0  0
   22.2809  -17.2518    0.0000 C   0  0  0  0  0  0  0  0  0  0  0  0
   15.1316  -19.2090    0.0000 O   0  0  0  0  0  0  0  0  0  0  0  0
  1  2  1  0     0  0
  1  3  1  0     0  0
  1  4  1  0     0  0
  1  5  1  1     0  0
  2  6  2  0     0  0
  2  7  1  0     0  0
  3  8  1  0     0  0
  3  9  1  0     0  0
  4 10  1  6     0  0
  4 11  1  0     0  0
  5 12  1  0     0  0
  6 13  1  0     0  0
  7 14  1  0     0  0
  7 15  2  0     0  0
  8 16  1  1     0  0
  9 17  1  0     0  0
 13 18  2  0     0  0
 13 19  1  0     0  0
  6 10  1  0     0  0
  8 14  1  0     0  0
 11 17  1  0     0  0
 12 16  1  0     0  0
 15 18  1  0     0  0
  3 20  1  1     0  0
 16 21  1  0     0  0
 11 22  1  6     0  0
M  END
