 
 
 
 57 62  0  0  1  0  0  0  0  0999 V2000
   15.3300  -15.3300    0.0000 S   0  0  0  0  0  0  0  0  0  0  0  0
   14.2100  -14.4200    0.0000 C   0  0  0  0  0  0  0  0  0  0  0  0
   12.8800  -14.7700    0.0000 C   0  0  0  0  0  0  0  0  0  0  0  0
   12.2500  -16.0300    0.0000 C   0  0  0  0  0  0  0  0  0  0  0  0
   12.9500  -17.3600    0.0000 N   0  0  0  0  0  0  0  0  0  0  0  0
   16.4500  -14.4200    0.0000 C   0  0  0  0  0  0  0  0  0  0  0  0
   17.7800  -14.7700    0.0000 C   0  0  0  0  0  0  0  0  0  0  0  0
   18.4100  -16.0300    0.0000 C   0  0  0  0  0  0  0  0  0  0  0  0
   17.7800  -17.2900    0.0000 N   0  0  0  0  0  0  0  0  0  0  0  0
   16.1000  -13.0900    0.0000 C   0  0  0  0  0  0  0  0  0  0  0  0
   17.0800  -12.0400    0.0000 C   0  0  0  0  0  0  0  0  0  0  0  0
   18.4100  -12.3900    0.0000 C   0  0  0  0  0  0  0  0  0  0  0  0
   18.7600  -13.7900    0.0000 C   0  0  0  0  0  0  0  0  0  0  0  0
   11.9000  -13.7900    0.0000 C   0  0  0  0  0  0  0  0  0  0  0  0
   12.2500  -12.3900    0.0000 C   0  0  0  0  0  0  0  0  0  0  0  0
   13.5800  -12.0400    0.0000 C   0  0  0  0  0  0  0  0  0  0  0  0
   14.5600  -13.0900    0.0000 N   0  0  0  0  0  0  0  0  0  0  0  0
   11.9700  -17.8500    0.0000 C   0  0  0  0  0  0  0  0  0  0  0  0
   11.9700  -19.2500    0.0000 C   0  0  0  0  0  0  0  0  0  0  0  0
   12.9500  -20.2300    0.0000 N   0  0  0  0  0  0  0  0  0  0  0  0
   14.3500  -20.2300    0.0000 C   0  0  0  0  0  0  0  0  0  0  0  0
   15.3300  -19.2500    0.0000 C   0  0  0  0  0  0  0  0  0  0  0  0
   18.4100  -18.5500    0.0000 C   0  0  0  0  0  0  0  0  0  0  0  0
   17.7800  -19.8100    0.0000 C   0  0  0  0  0  0  0  0  0  0  0  0
   16.4500  -20.0900    0.0000 N   0  0  0  0  0  0  0  0  0  0  0  0
   19.8100  -18.5500    0.0000 O   0  0  0  0  0  0  0  0  0  0  0  0
   18.6200  -20.9300    0.0000 C   0  0  0  0  0  0  0  0  0  0  0  0
   18.6200  -22.3300    0.0000 C   0  0  0  0  0  0  0  0  0  0  0  0
   19.7400  -23.1700    0.0000 C   0  0  0  0  0  0  0  0  0  0  0  0
   19.3200  -24.4300    0.0000 C   0  0  0  0  0  0  0  0  0  0  0  0
   17.9200  -24.4300    0.0000 N   0  0  0  0  0  0  0  0  0  0  0  0
   17.5000  -23.1700    0.0000 C   0  0  0  0  0  0  0  0  0  0  0  0
   21.1400  -22.8200    0.0000 C   0  0  0  0  0  0  0  0  0  0  0  0
   22.0500  -23.8700    0.0000 C   0  0  0  0  0  0  0  0  0  0  0  0
   21.6300  -25.2000    0.0000 C   0  0  0  0  0  0  0  0  0  0  0  0
   20.3000  -25.4800    0.0000 C   0  0  0  0  0  0  0  0  0  0  0  0
   16.1700  -21.4900    0.0000 C   0  0  0  0  0  0  0  0  0  0  0  0
   15.3300  -17.8500    0.0000 O   0  0  0  0  0  0  0  0  0  0  0  0
   20.0900  -14.1400    0.0000 C   0  0  0  0  0  0  0  0  0  0  0  0
   21.1400  -13.1600    0.0000 C   0  0  0  0  0  0  0  0  0  0  0  0
   22.4700  -13.5800    0.0000 C   0  0  0  0  0  0  0  0  0  0  0  0
   22.8200  -14.9100    0.0000 C   0  0  0  0  0  0  0  0  0  0  0  0
   21.8400  -15.8900    0.0000 C   0  0  0  0  0  0  0  0  0  0  0  0
   20.4400  -15.5400    0.0000 C   0  0  0  0  0  0  0  0  0  0  0  0
   24.1500  -15.2600    0.0000 C   0  0  0  0  0  0  0  0  0  0  0  0
   25.2000  -14.2800    0.0000 O   0  0  0  0  0  0  0  0  0  0  0  0
   24.5000  -16.5900    0.0000 O   0  0  0  0  0  0  0  0  0  0  0  0
   14.3500  -21.6300    0.0000 C   0  0  0  0  0  0  0  0  0  0  0  0
   13.1600  -22.3300    0.0000 C   0  0  0  0  0  0  0  0  0  0  0  0
   10.7100  -19.8100    0.0000 O   0  0  0  0  0  0  0  0  0  0  0  0
   10.7800  -17.1500    0.0000 C   0  0  0  0  0  0  0  0  0  0  0  0
    9.5900  -17.8500    0.0000 C   0  0  0  0  0  0  0  0  0  0  0  0
    8.4000  -17.1500    0.0000 C   0  0  0  0  0  0  0  0  0  0  0  0
    7.2100  -17.8500    0.0000 N   0  0  0  0  0  0  0  0  0  0  0  0
   11.9700  -21.6300    0.0000 C   0  0  0  0  0  0  0  0  0  0  0  0
   10.7800  -22.3300    0.0000 C   0  0  0  0  0  0  0  0  0  0  0  0
    9.5900  -21.6300    0.0000 N   0  0  0  0  0  0  0  0  0  0  0  0
  3  4  1  0     0  0
  4  5  1  0     0  0
  2  3  1  0     0  0
  1  2  1  0     0  0
  7  8  1  0     0  0
  8  9  1  0     0  0
  6  7  1  0     0  0
  1  6  1  0     0  0
  6 10  2  0     0  0
 10 11  1  0     0  0
 11 12  2  0     0  0
 12 13  1  0     0  0
  7 13  2  0     0  0
  3 14  2  0     0  0
 14 15  1  0     0  0
 15 16  2  0     0  0
 16 17  1  0     0  0
  2 17  2  0     0  0
 18 19  1  0     0  0
 19 20  1  0     0  0
 20 21  1  0     0  0
 21 22  1  0     0  0
  9 23  1  0     0  0
 23 24  1  0     0  0
 22 25  1  0     0  0
 24 25  1  0     0  0
 18  5  1  0     0  0
 23 26  2  0     0  0
 24 27  1  6     0  0
 27 28  1  0     0  0
 28 29  1  0     0  0
 29 30  1  0     0  0
 30 31  1  0     0  0
 31 32  1  0     0  0
 28 32  2  0     0  0
 29 33  2  0     0  0
 33 34  1  0     0  0
 34 35  2  0     0  0
 35 36  1  0     0  0
 30 36  2  0     0  0
 25 37  1  0     0  0
 22 38  2  0     0  0
 13 39  1  0     0  0
 39 40  2  0     0  0
 40 41  1  0     0  0
 41 42  2  0     0  0
 42 43  1  0     0  0
 43 44  2  0     0  0
 39 44  1  0     0  0
 42 45  1  0     0  0
 45 46  2  0     0  0
 45 47  1  0     0  0
 21 48  1  6     0  0
 48 49  1  0     0  0
 19 50  2  0     0  0
 51 52  1  0     0  0
 18 51  1  6     0  0
 52 53  1  0     0  0
 53 54  1  0     0  0
 49 55  1  0     0  0
 55 56  1  0     0  0
 56 57  1  0     0  0
M  END
