 
 
 
 27 29  0  0  0  0  0  0  0  0999 V2000
   15.4684  -16.0969    0.0000 C   0  0  0  0  0  0  0  0  0  0  0  0
   15.4684  -17.4966    0.0000 C   0  0  0  0  0  0  0  0  0  0  0  0
   16.6806  -18.1964    0.0000 C   0  0  0  0  0  0  0  0  0  0  0  0
   17.8928  -17.4966    0.0000 C   0  0  0  0  0  0  0  0  0  0  0  0
   17.8928  -16.0969    0.0000 C   0  0  0  0  0  0  0  0  0  0  0  0
   16.6806  -15.3970    0.0000 C   0  0  0  0  0  0  0  0  0  0  0  0
   19.2241  -17.9291    0.0000 N   0  0  0  0  0  0  0  0  0  0  0  0
   20.0468  -16.7967    0.0000 C   0  0  0  0  0  0  0  0  0  0  0  0
   19.2241  -15.6644    0.0000 N   0  0  0  0  0  0  0  0  0  0  0  0
   21.4465  -16.7967    0.0000 C   0  0  0  0  0  0  0  0  0  0  0  0
   22.1464  -18.0089    0.0000 C   0  0  0  0  0  0  0  0  0  0  0  0
   21.4490  -19.2164    0.0000 C   0  0  0  0  0  0  0  0  0  0  0  0
   22.1488  -20.4287    0.0000 C   0  0  0  0  0  0  0  0  0  0  0  0
   23.5485  -20.4289    0.0000 C   0  0  0  0  0  0  0  0  0  0  0  0
   24.2456  -19.2213    0.0000 C   0  0  0  0  0  0  0  0  0  0  0  0
   23.5461  -18.0091    0.0000 C   0  0  0  0  0  0  0  0  0  0  0  0
   14.2563  -18.1964    0.0000 N   0  3  0  0  0  0  0  0  0  0  0  0
   13.0440  -17.4966    0.0000 O   0  5  0  0  0  0  0  0  0  0  0  0
   14.2563  -19.5962    0.0000 O   0  0  0  0  0  0  0  0  0  0  0  0
   24.2482  -21.6410    0.0000 Cl  0  0  0  0  0  0  0  0  0  0  0  0
   19.5863  -14.3123    0.0000 C   0  0  0  0  0  0  0  0  0  0  0  0
   20.9383  -13.9500    0.0000 C   0  0  0  0  0  0  0  0  0  0  0  0
   21.3056  -12.5797    0.0000 N   0  0  0  0  0  0  0  0  0  0  0  0
   22.6290  -12.2255    0.0000 C   0  0  0  0  0  0  0  0  0  0  0  0
   20.3135  -11.5871    0.0000 C   0  0  0  0  0  0  0  0  0  0  0  0
   20.6671  -10.2690    0.0000 C   0  0  0  0  0  0  0  0  0  0  0  0
   22.9840  -10.9009    0.0000 C   0  0  0  0  0  0  0  0  0  0  0  0
  1  2  2  0     0  0
  2  3  1  0     0  0
  3  4  2  0     0  0
  4  5  1  0     0  0
  5  6  2  0     0  0
  1  6  1  0     0  0
  4  7  1  0     0  0
  7  8  2  0     0  0
  8  9  1  0     0  0
  5  9  1  0     0  0
  8 10  1  0     0  0
 10 11  1  0     0  0
 11 12  2  0     0  0
 12 13  1  0     0  0
 13 14  2  0     0  0
 14 15  1  0     0  0
 15 16  2  0     0  0
 11 16  1  0     0  0
  2 17  1  0     0  0
 17 18  1  0     0  0
 17 19  2  0     0  0
 14 20  1  0     0  0
  9 21  1  0     0  0
 21 22  1  0     0  0
 22 23  1  0     0  0
 23 24  1  0     0  0
 23 25  1  0     0  0
 25 26  1  0     0  0
 24 27  1  0     0  0
M  CHG  2  17   1  18  -1
M  END
