 
 
 
 28 32  0  0  1  0  0  0  0  0999 V2000
   14.9831  -16.8546    0.0000 C   0  0  2  0  0  0  0  0  0  0  0  0
   14.9831  -15.5691    0.0000 C   0  0  0  0  0  0  0  0  0  0  0  0
   16.1973  -17.5689    0.0000 C   0  0  2  0  0  0  0  0  0  0  0  0
   16.1973  -16.2119    0.0000 C   0  0  0  0  0  0  0  0  0  0  0  0
   13.8404  -14.9263    0.0000 C   0  0  0  0  0  0  0  0  0  0  0  0
   16.1973  -14.9263    0.0000 C   0  0  0  0  0  0  0  0  0  0  0  0
   17.2685  -16.8546    0.0000 C   0  0  1  0  0  0  0  0  0  0  0  0
   18.4113  -16.2119    0.0000 C   0  0  0  0  0  0  0  0  0  0  0  0
   13.8404  -13.5693    0.0000 C   0  0  0  0  0  0  0  0  0  0  0  0
   17.2685  -15.6405    0.0000 C   0  0  0  0  0  0  0  0  0  0  0  0
   16.1973  -13.5693    0.0000 C   0  0  0  0  0  0  0  0  0  0  0  0
   18.4113  -17.5689    0.0000 N   0  0  3  0  0  0  0  0  0  0  0  0
   15.0545  -12.9265    0.0000 C   0  0  0  0  0  0  0  0  0  0  0  0
   12.6976  -12.9265    0.0000 O   0  0  0  0  0  0  0  0  0  0  0  0
   19.6413  -16.8588    0.0000 C   0  0  0  0  0  0  0  0  0  0  0  0
   20.8711  -17.5689    0.0000 C   0  0  0  0  0  0  0  0  0  0  0  0
   22.1010  -16.8588    0.0000 C   0  0  0  0  0  0  0  0  0  0  0  0
   23.3341  -17.5707    0.0000 C   0  0  0  0  0  0  0  0  0  0  0  0
   24.5639  -16.8607    0.0000 C   0  0  0  0  0  0  0  0  0  0  0  0
   24.5640  -15.4405    0.0000 C   0  0  0  0  0  0  0  0  0  0  0  0
   23.3311  -14.7285    0.0000 C   0  0  0  0  0  0  0  0  0  0  0  0
   22.1011  -15.4386    0.0000 C   0  0  0  0  0  0  0  0  0  0  0  0
   20.8711  -18.9891    0.0000 O   0  0  0  0  0  0  0  0  0  0  0  0
   13.7650  -17.5447    0.0000 C   0  0  0  0  0  0  0  0  0  0  0  0
   13.7639  -18.9614    0.0000 C   0  0  0  0  0  0  0  0  0  0  0  0
   14.9678  -19.6589    0.0000 C   0  0  0  0  0  0  0  0  0  0  0  0
   16.1859  -18.9688    0.0000 C   0  0  0  0  0  0  0  0  0  0  0  0
   17.1872  -18.5588    0.0000 H   0  0  0  0  0  0  0  0  0  0  0  0
  1  2  1  0     0  0
  1  3  1  0     0  0
  1  4  1  1     0  0
  2  5  2  0     0  0
  2  6  1  0     0  0
  3  7  1  0     0  0
  4  8  1  0     0  0
  5  9  1  0     0  0
  6 10  1  0     0  0
  6 11  2  0     0  0
  7 12  1  1     0  0
  9 13  2  0     0  0
  9 14  1  0     0  0
  7 10  1  0     0  0
  8 12  1  0     0  0
 11 13  1  0     0  0
 12 15  1  0     0  0
 15 16  1  0     0  0
 16 17  1  0     0  0
 17 18  2  0     0  0
 18 19  1  0     0  0
 19 20  2  0     0  0
 20 21  1  0     0  0
 21 22  2  0     0  0
 17 22  1  0     0  0
 16 23  2  0     0  0
  1 24  1  0     0  0
 24 25  1  0     0  0
 25 26  1  0     0  0
 26 27  1  0     0  0
  3 27  1  0     0  0
  3 28  1  1     0  0
M  END
