 
 
 
 50 52  0  0  0  0  0  0  0  0999 V2000
   19.1445  -15.7083    0.0000 C   0  0  0  0  0  0  0  0  0  0  0  0
   19.1445  -17.1109    0.0000 N   0  0  0  0  0  0  0  0  0  0  0  0
   20.4068  -17.8121    0.0000 C   0  0  0  0  0  0  0  0  0  0  0  0
   21.5990  -17.1109    0.0000 N   0  0  0  0  0  0  0  0  0  0  0  0
   21.5990  -15.7083    0.0000 C   0  0  0  0  0  0  0  0  0  0  0  0
   20.4068  -15.0071    0.0000 C   0  0  0  0  0  0  0  0  0  0  0  0
   17.9524  -15.0071    0.0000 N   0  0  0  0  0  0  0  0  0  0  0  0
   22.8612  -15.0071    0.0000 N   0  0  0  0  0  0  0  0  0  0  0  0
   20.4068  -19.2147    0.0000 C   0  0  0  0  0  0  0  0  0  0  0  0
   24.0534  -15.7083    0.0000 C   0  0  0  0  0  0  0  0  0  0  0  0
   25.2455  -15.0071    0.0000 C   0  0  0  0  0  0  0  0  0  0  0  0
   25.2455  -13.6045    0.0000 N   0  0  0  0  0  0  0  0  0  0  0  0
   24.0534  -12.9033    0.0000 C   0  0  0  0  0  0  0  0  0  0  0  0
   22.8612  -13.6045    0.0000 C   0  0  0  0  0  0  0  0  0  0  0  0
   16.7602  -15.7083    0.0000 C   0  0  0  0  0  0  0  0  0  0  0  0
   15.6382  -14.8668    0.0000 S   0  0  0  0  0  0  0  0  0  0  0  0
   14.5162  -15.6382    0.0000 C   0  0  0  0  0  0  0  0  0  0  0  0
   14.9369  -16.9706    0.0000 C   0  0  0  0  0  0  0  0  0  0  0  0
   16.2694  -16.9706    0.0000 N   0  0  0  0  0  0  0  0  0  0  0  0
   13.3240  -15.0071    0.0000 C   0  0  0  0  0  0  0  0  0  0  0  0
   12.1319  -15.7083    0.0000 N   0  0  0  0  0  0  0  0  0  0  0  0
   13.2539  -13.5344    0.0000 O   0  0  0  0  0  0  0  0  0  0  0  0
   10.8696  -15.0071    0.0000 C   0  0  0  0  0  0  0  0  0  0  0  0
   10.8696  -13.5344    0.0000 C   0  0  0  0  0  0  0  0  0  0  0  0
    9.6073  -12.8332    0.0000 C   0  0  0  0  0  0  0  0  0  0  0  0
    8.4152  -13.6045    0.0000 C   0  0  0  0  0  0  0  0  0  0  0  0
    8.4152  -15.0071    0.0000 C   0  0  0  0  0  0  0  0  0  0  0  0
    9.6073  -15.7083    0.0000 C   0  0  0  0  0  0  0  0  0  0  0  0
   12.0618  -12.8332    0.0000 Cl  0  0  0  0  0  0  0  0  0  0  0  0
    9.6073  -17.0407    0.0000 C   0  0  0  0  0  0  0  0  0  0  0  0
   26.5078  -12.9033    0.0000 C   0  0  0  0  0  0  0  0  0  0  0  0
   27.7000  -13.6045    0.0000 C   0  0  0  0  0  0  0  0  0  0  0  0
   28.8921  -12.9033    0.0000 O   0  0  0  0  0  0  0  0  0  0  0  0
   42.9801  -17.3281    0.0000 C   0  0  0  0  0  0  0  0  0  0  0  0
   41.7874  -18.0297    0.0000 C   0  0  0  0  0  0  0  0  0  0  0  0
   40.5947  -17.3281    0.0000 C   0  0  0  0  0  0  0  0  0  0  0  0
   39.3319  -18.0297    0.0000 C   0  0  0  0  0  0  0  0  0  0  0  0
   38.1392  -17.3281    0.0000 C   0  0  0  0  0  0  0  0  0  0  0  0
   36.9465  -18.0297    0.0000 C   0  0  0  0  0  0  0  0  0  0  0  0
   35.7539  -17.3281    0.0000 C   0  0  0  0  0  0  0  0  0  0  0  0
   34.5612  -18.0297    0.0000 C   0  0  0  0  0  0  0  0  0  0  0  0
   33.2984  -17.3281    0.0000 C   0  0  0  0  0  0  0  0  0  0  0  0
   32.1057  -18.0297    0.0000 C   0  0  0  0  0  0  0  0  0  0  0  0
   30.9130  -17.3281    0.0000 C   0  0  0  0  0  0  0  0  0  0  0  0
   29.7203  -18.0297    0.0000 O   0  0  0  0  0  0  0  0  0  0  0  0
   44.2429  -18.0297    0.0000 C   0  0  0  0  0  0  0  0  0  0  0  0
   28.3172  -18.0297    0.0000 S   0  0  0  0  0  0  0  0  0  0  0  0
   26.9140  -18.0297    0.0000 O   0  0  0  0  0  0  0  0  0  0  0  0
   28.3172  -16.6265    0.0000 O   0  0  0  0  0  0  0  0  0  0  0  0
   28.3172  -19.4328    0.0000 O   0  0  0  0  0  0  0  0  0  0  0  0
  1  2  2  0     0  0
  2  3  1  0     0  0
  3  4  2  0     0  0
  4  5  1  0     0  0
  5  6  2  0     0  0
  1  6  1  0     0  0
  1  7  1  0     0  0
  5  8  1  0     0  0
  3  9  1  0     0  0
  8 10  1  0     0  0
 10 11  1  0     0  0
 11 12  1  0     0  0
 12 13  1  0     0  0
 13 14  1  0     0  0
  8 14  1  0     0  0
  7 15  1  0     0  0
 15 16  1  0     0  0
 16 17  1  0     0  0
 17 18  2  0     0  0
 18 19  1  0     0  0
 15 19  2  0     0  0
 17 20  1  0     0  0
 20 21  1  0     0  0
 20 22  2  0     0  0
 21 23  1  0     0  0
 23 24  2  0     0  0
 24 25  1  0     0  0
 25 26  2  0     0  0
 26 27  1  0     0  0
 27 28  2  0     0  0
 23 28  1  0     0  0
 24 29  1  0     0  0
 28 30  1  0     0  0
 12 31  1  0     0  0
 31 32  1  0     0  0
 32 33  1  0     0  0
 34 35  1  0     0  0
 35 36  1  0     0  0
 36 37  1  0     0  0
 37 38  1  0     0  0
 38 39  1  0     0  0
 39 40  1  0     0  0
 40 41  1  0     0  0
 41 42  1  0     0  0
 42 43  1  0     0  0
 43 44  1  0     0  0
 44 45  1  0     0  0
 34 46  1  0     0  0
 45 47  1  0     0  0
 47 48  1  0     0  0
 47 49  2  0     0  0
 47 50  2  0     0  0
M  END
