 
 
 
 32 34  0  0  1  0  0  0  0  0999 V2000
    9.5900  -14.9800    0.0000 C   0  0  0  0  0  0  0  0  0  0  0  0
    9.5900  -16.3800    0.0000 C   0  0  0  0  0  0  0  0  0  0  0  0
   10.7800  -17.0800    0.0000 C   0  0  0  0  0  0  0  0  0  0  0  0
   12.0400  -16.3800    0.0000 C   0  0  0  0  0  0  0  0  0  0  0  0
   12.0400  -14.9800    0.0000 C   0  0  0  0  0  0  0  0  0  0  0  0
   10.7800  -14.2800    0.0000 C   0  0  0  0  0  0  0  0  0  0  0  0
   13.2300  -14.2800    0.0000 O   0  0  0  0  0  0  0  0  0  0  0  0
   13.2300  -12.8800    0.0000 C   0  0  0  0  0  0  0  0  0  0  0  0
   14.4200  -12.1800    0.0000 C   0  0  0  0  0  0  0  0  0  0  0  0
   14.4200  -10.7800    0.0000 N   0  0  0  0  0  0  0  0  0  0  0  0
   13.2300  -10.0800    0.0000 C   0  0  0  0  0  0  0  0  0  0  0  0
   12.0400  -10.7800    0.0000 C   0  0  0  0  0  0  0  0  0  0  0  0
   12.0400  -12.1800    0.0000 C   0  0  0  0  0  0  0  0  0  0  0  0
   15.6100  -12.8800    0.0000 C   0  0  0  0  0  0  0  0  0  0  0  0
   13.2300   -8.6800    0.0000 C   0  0  0  0  0  0  0  0  0  0  0  0
   14.3500   -7.8400    0.0000 C   0  0  0  0  0  0  0  0  0  0  0  0
   13.9300   -6.5100    0.0000 N   0  0  0  0  0  0  0  0  0  0  0  0
   12.5300   -6.5100    0.0000 N   0  0  0  0  0  0  0  0  0  0  0  0
   12.1100   -7.8400    0.0000 N   0  0  0  0  0  0  0  0  0  0  0  0
   15.5400   -8.5400    0.0000 C   0  0  0  0  0  0  0  0  0  0  0  0
   16.7300   -7.8400    0.0000 O   0  0  0  0  0  0  0  0  0  0  0  0
   17.9200   -8.5400    0.0000 C   0  0  0  0  0  0  0  0  0  0  0  0
   19.1100   -7.8400    0.0000 N   0  0  0  0  0  0  0  0  0  0  0  0
   17.9200   -9.9400    0.0000 O   0  0  0  0  0  0  0  0  0  0  0  0
   20.3000   -8.5400    0.0000 C   0  0  0  0  0  0  0  0  0  0  0  0
   19.1100   -6.4400    0.0000 C   0  0  0  0  0  0  0  0  0  0  0  0
   21.4900   -7.8400    0.0000 C   0  0  0  0  0  0  0  0  0  0  0  0
   22.6800   -8.5400    0.0000 C   0  0  0  0  0  0  0  0  0  0  0  0
   14.7576   -5.3808    0.0000 C   0  0  0  0  0  0  0  0  0  0  0  0
   10.7628  -18.4799    0.0000 C   0  0  0  0  0  0  0  0  0  0  0  0
    9.5549  -19.1576    0.0000 O   0  0  0  0  0  0  0  0  0  0  0  0
   11.9792  -19.2024    0.0000 O   0  0  0  0  0  0  0  0  0  0  0  0
  1  2  1  0     0  0
  2  3  1  0     0  0
  3  4  1  0     0  0
  4  5  1  0     0  0
  5  6  1  0     0  0
  1  6  1  0     0  0
  5  7  1  6     0  0
  7  8  1  0     0  0
  8  9  2  0     0  0
  9 10  1  0     0  0
 10 11  2  0     0  0
 11 12  1  0     0  0
 12 13  2  0     0  0
  8 13  1  0     0  0
  9 14  1  0     0  0
 11 15  1  0     0  0
 15 16  2  0     0  0
 16 17  1  0     0  0
 17 18  1  0     0  0
 18 19  2  0     0  0
 15 19  1  0     0  0
 16 20  1  0     0  0
 20 21  1  0     0  0
 21 22  1  0     0  0
 22 23  1  0     0  0
 22 24  2  0     0  0
 23 25  1  0     0  0
 23 26  1  0     0  0
 25 27  1  0     0  0
 27 28  1  0     0  0
 17 29  1  0     0  0
  3 30  1  1     0  0
 30 31  2  0     0  0
 30 32  1  0     0  0
M  END
