 
 
 
 34 36  0  0  1  0  0  0  0  0999 V2000
   14.7000  -15.0500    0.0000 C   0  0  0  0  0  0  0  0  0  0  0  0
   14.7000  -13.6500    0.0000 C   0  0  0  0  0  0  0  0  0  0  0  0
   13.3700  -13.2300    0.0000 C   0  0  0  0  0  0  0  0  0  0  0  0
   12.6000  -14.3500    0.0000 C   0  0  0  0  0  0  0  0  0  0  0  0
   13.3700  -15.4700    0.0000 C   0  0  0  0  0  0  0  0  0  0  0  0
   12.9500  -16.8000    0.0000 O   0  0  0  0  0  0  0  0  0  0  0  0
   15.9600  -15.7500    0.0000 C   0  0  0  0  0  0  0  0  0  0  0  0
   17.2200  -15.0500    0.0000 C   0  0  0  0  0  0  0  0  0  0  0  0
   18.4100  -15.7500    0.0000 C   0  0  0  0  0  0  0  0  0  0  0  0
   19.6700  -15.0500    0.0000 C   0  0  0  0  0  0  0  0  0  0  0  0
   20.8600  -15.7500    0.0000 O   0  0  0  0  0  0  0  0  0  0  0  0
   18.4100  -17.1500    0.0000 O   0  0  0  0  0  0  0  0  0  0  0  0
   13.1600  -11.6200    0.0000 O   0  0  0  0  0  0  0  0  0  0  0  0
   14.0000  -10.5700    0.0000 C   0  0  0  0  0  0  0  0  0  0  0  0
   15.4000  -10.5700    0.0000 C   0  0  0  0  0  0  0  0  0  0  0  0
   16.3100  -11.6900    0.0000 C   0  0  0  0  0  0  0  0  0  0  0  0
   15.9600  -13.0200    0.0000 C   0  0  0  0  0  0  0  0  0  0  0  0
   16.5900   -9.8700    0.0000 C   0  0  0  0  0  0  0  0  0  0  0  0
   17.7800  -10.5700    0.0000 C   0  0  0  0  0  0  0  0  0  0  0  0
   18.9700   -9.8700    0.0000 C   0  0  0  0  0  0  0  0  0  0  0  0
   20.1600  -10.5700    0.0000 C   0  0  0  0  0  0  0  0  0  0  0  0
   21.3500   -9.8700    0.0000 O   0  0  0  0  0  0  0  0  0  0  0  0
   20.1600  -11.9700    0.0000 O   0  0  0  0  0  0  0  0  0  0  0  0
   22.5400  -10.5700    0.0000 C   0  0  0  0  0  0  0  0  0  0  0  0
   23.7300   -9.8700    0.0000 C   0  0  0  0  0  0  0  0  0  0  0  0
   22.5400  -11.9700    0.0000 C   0  0  0  0  0  0  0  0  0  0  0  0
   22.0753  -15.0549    0.0000 C   0  0  0  0  0  0  0  0  0  0  0  0
   23.2637  -15.7477    0.0000 C   0  0  0  0  0  0  0  0  0  0  0  0
   24.4791  -15.0528    0.0000 C   0  0  0  0  0  0  0  0  0  0  0  0
   24.4849  -13.6528    0.0000 C   0  0  0  0  0  0  0  0  0  0  0  0
   23.2964  -12.9600    0.0000 C   0  0  0  0  0  0  0  0  0  0  0  0
   22.0811  -13.6549    0.0000 C   0  0  0  0  0  0  0  0  0  0  0  0
   20.8464  -12.9349    0.0000 F   0  0  0  0  0  0  0  0  0  0  0  0
   25.7029  -15.7663    0.0000 F   0  0  0  0  0  0  0  0  0  0  0  0
  1  2  1  0     0  0
  2  3  1  0     0  0
  3  4  1  0     0  0
  4  5  1  0     0  0
  1  5  1  0     0  0
  5  6  1  6     0  0
  1  7  1  1     0  0
  7  8  2  0     0  0
  8  9  1  0     0  0
  9 10  1  0     0  0
 10 11  1  0     0  0
  9 12  1  6     0  0
 15 16  1  0     0  0
 13  3  1  0     0  0
 16 17  1  0     0  0
 14 15  1  0     0  0
 13 14  1  0     0  0
 17  2  1  0     0  0
 18 19  1  0     0  0
 15 18  1  1     0  0
 19 20  1  0     0  0
 20 21  1  0     0  0
 21 22  1  0     0  0
 21 23  2  0     0  0
 22 24  1  0     0  0
 24 25  1  0     0  0
 24 26  1  0     0  0
 11 27  1  0     0  0
 27 28  2  0     0  0
 28 29  1  0     0  0
 29 30  2  0     0  0
 30 31  1  0     0  0
 31 32  2  0     0  0
 27 32  1  0     0  0
 32 33  1  0     0  0
 29 34  1  0     0  0
M  END
