 
 
 
 24 25  0  0  0  0  0  0  0  0999 V2000
   16.2221  -18.3897    0.0000 C   0  0  0  0  0  0  0  0  0  0  0  0
   16.2221  -19.7881    0.0000 C   0  0  0  0  0  0  0  0  0  0  0  0
   17.4108  -20.4874    0.0000 C   0  0  0  0  0  0  0  0  0  0  0  0
   18.6694  -19.7881    0.0000 C   0  0  0  0  0  0  0  0  0  0  0  0
   18.6694  -18.3897    0.0000 C   0  0  0  0  0  0  0  0  0  0  0  0
   17.4108  -17.6905    0.0000 C   0  0  0  0  0  0  0  0  0  0  0  0
   17.4108  -16.2920    0.0000 N   0  0  0  0  0  0  0  0  0  0  0  0
   18.5994  -15.5928    0.0000 C   0  0  0  0  0  0  0  0  0  0  0  0
   18.5994  -14.1943    0.0000 C   0  0  0  0  0  0  0  0  0  0  0  0
   16.1522  -14.1943    0.0000 C   0  0  0  0  0  0  0  0  0  0  0  0
   16.1522  -15.5928    0.0000 C   0  0  0  0  0  0  0  0  0  0  0  0
   14.9635  -13.4951    0.0000 C   0  0  0  0  0  0  0  0  0  0  0  0
   14.9635  -16.2920    0.0000 O   0  0  0  0  0  0  0  0  0  0  0  0
   19.7881  -13.4951    0.0000 N   0  0  0  0  0  0  0  0  0  0  0  0
   17.3870  -13.4943    0.0000 C   0  0  0  0  0  0  0  0  0  0  0  0
   21.0006  -14.1951    0.0000 C   0  0  0  0  0  0  0  0  0  0  0  0
   19.7881  -12.0951    0.0000 C   0  0  0  0  0  0  0  0  0  0  0  0
   21.0006  -11.3951    0.0000 C   0  0  0  0  0  0  0  0  0  0  0  0
   21.0006   -9.9951    0.0000 C   0  0  0  0  0  0  0  0  0  0  0  0
   22.2061   -9.2992    0.0000 C   0  0  0  0  0  0  0  0  0  0  0  0
   22.2062   -7.8992    0.0000 C   0  0  0  0  0  0  0  0  0  0  0  0
   20.9938   -7.1991    0.0000 C   0  0  0  0  0  0  0  0  0  0  0  0
   19.7882   -7.8950    0.0000 C   0  0  0  0  0  0  0  0  0  0  0  0
   19.7882   -9.2950    0.0000 C   0  0  0  0  0  0  0  0  0  0  0  0
  1  2  2  0     0  0
  2  3  1  0     0  0
  3  4  2  0     0  0
  4  5  1  0     0  0
  5  6  2  0     0  0
  1  6  1  0     0  0
  6  7  1  0     0  0
  7  8  1  0     0  0
  8  9  1  0     0  0
 10 11  1  0     0  0
  7 11  1  0     0  0
 10 12  1  0     0  0
 11 13  2  0     0  0
  9 14  1  0     0  0
  9 15  1  0     0  0
 14 16  1  0     0  0
 14 17  1  0     0  0
 17 18  1  0     0  0
 18 19  1  0     0  0
 19 20  2  0     0  0
 20 21  1  0     0  0
 21 22  2  0     0  0
 22 23  1  0     0  0
 23 24  2  0     0  0
 19 24  1  0     0  0
M  END
