 
 
 
 53 56  0  0  0  0  0  0  0  0999 V2000
   14.3150  -11.5220    0.0000 C   0  0  0  0  0  0  0  0  0  0  0  0
   14.3150  -12.9186    0.0000 C   0  0  0  0  0  0  0  0  0  0  0  0
   15.5720  -13.6169    0.0000 C   0  0  0  0  0  0  0  0  0  0  0  0
   16.7591  -12.9186    0.0000 C   0  0  0  0  0  0  0  0  0  0  0  0
   16.7591  -11.5220    0.0000 N   0  0  0  0  0  0  0  0  0  0  0  0
   15.5720  -10.8237    0.0000 C   0  0  0  0  0  0  0  0  0  0  0  0
   15.5720   -9.4272    0.0000 N   0  0  0  0  0  0  0  0  0  0  0  0
   15.5720  -15.0135    0.0000 C   0  0  0  0  0  0  0  0  0  0  0  0
   13.1279  -13.6169    0.0000 C   0  0  0  0  0  0  0  0  0  0  0  0
   17.9462  -13.6169    0.0000 C   0  0  0  0  0  0  0  0  0  0  0  0
   17.9462  -15.0135    0.0000 C   0  0  0  0  0  0  0  0  0  0  0  0
   19.2031  -15.7118    0.0000 C   0  0  0  0  0  0  0  0  0  0  0  0
   20.3902  -15.0135    0.0000 C   0  0  0  0  0  0  0  0  0  0  0  0
   20.3902  -13.6169    0.0000 C   0  0  0  0  0  0  0  0  0  0  0  0
   19.2031  -12.9186    0.0000 C   0  0  0  0  0  0  0  0  0  0  0  0
   21.5773  -15.7118    0.0000 C   0  0  0  0  0  0  0  0  0  0  0  0
   22.8342  -15.0135    0.0000 N   0  0  0  0  0  0  0  0  0  0  0  0
   22.8342  -13.6169    0.0000 C   0  0  0  0  0  0  0  0  0  0  0  0
   21.5773  -12.9186    0.0000 N   0  0  0  0  0  0  0  0  0  0  0  0
   19.2031  -11.5220    0.0000 F   0  0  0  0  0  0  0  0  0  0  0  0
   16.7591  -15.7118    0.0000 Cl  0  0  0  0  0  0  0  0  0  0  0  0
   24.0912  -12.9186    0.0000 O   0  0  0  0  0  0  0  0  0  0  0  0
   24.0912  -11.5220    0.0000 C   0  0  0  0  0  0  0  0  0  0  0  0
   22.8342  -10.8237    0.0000 C   0  0  0  0  0  0  0  0  0  0  0  0
   22.8342   -9.4272    0.0000 N   0  0  0  0  0  0  0  0  0  0  0  0
   21.5075   -9.0082    0.0000 C   0  0  0  0  0  0  0  0  0  0  0  0
   20.6695  -10.1953    0.0000 C   0  0  0  0  0  0  0  0  0  0  0  0
   21.5075  -11.2427    0.0000 C   0  0  0  0  0  0  0  0  0  0  0  0
   23.8817   -8.5892    0.0000 C   0  0  0  0  0  0  0  0  0  0  0  0
   21.5773  -17.1084    0.0000 N   0  0  0  0  0  0  0  0  0  0  0  0
   20.3902  -17.8067    0.0000 C   0  0  0  0  0  0  0  0  0  0  0  0
   20.3902  -19.2033    0.0000 C   0  0  0  0  0  0  0  0  0  0  0  0
   21.5773  -19.9016    0.0000 N   0  0  0  0  0  0  0  0  0  0  0  0
   22.8342  -19.2033    0.0000 C   0  0  0  0  0  0  0  0  0  0  0  0
   22.8342  -17.8067    0.0000 C   0  0  0  0  0  0  0  0  0  0  0  0
   24.0213  -17.1084    0.0000 C   0  0  0  0  0  0  0  0  0  0  0  0
   21.5773  -21.2982    0.0000 C   0  0  0  0  0  0  0  0  0  0  0  0
   20.3902  -21.9965    0.0000 O   0  0  0  0  0  0  0  0  0  0  0  0
   22.8342  -21.9965    0.0000 C   0  0  0  0  0  0  0  0  0  0  0  0
   22.8342  -23.3930    0.0000 C   0  0  0  0  0  0  0  0  0  0  0  0
   15.5720  -16.4101    0.0000 F   0  0  0  0  0  0  0  0  0  0  0  0
   16.7591  -14.3152    0.0000 F   0  0  0  0  0  0  0  0  0  0  0  0
   14.3150  -15.7118    0.0000 F   0  0  0  0  0  0  0  0  0  0  0  0
   27.1600  -20.7900    0.0000 O   0  0  0  0  0  0  0  0  0  0  0  0
   28.3724  -21.4900    0.0000 C   0  0  0  0  0  0  0  0  0  0  0  0
   29.5679  -20.7996    0.0000 C   0  0  0  0  0  0  0  0  0  0  0  0
   28.3725  -22.8898    0.0000 O   0  0  0  0  0  0  0  0  0  0  0  0
   30.7553  -21.4851    0.0000 C   0  0  0  0  0  0  0  0  0  0  0  0
   31.9465  -20.7971    0.0000 C   0  0  0  0  0  0  0  0  0  0  0  0
   33.1360  -21.4838    0.0000 C   0  0  0  0  0  0  0  0  0  0  0  0
   34.3261  -20.7965    0.0000 C   0  0  0  0  0  0  0  0  0  0  0  0
   35.5162  -21.4835    0.0000 O   0  0  0  0  0  0  0  0  0  0  0  0
   34.3261  -19.3902    0.0000 O   0  0  0  0  0  0  0  0  0  0  0  0
  1  2  2  0     0  0
  2  3  1  0     0  0
  3  4  2  0     0  0
  4  5  1  0     0  0
  5  6  2  0     0  0
  1  6  1  0     0  0
  6  7  1  0     0  0
  3  8  1  0     0  0
  2  9  1  0     0  0
  4 10  1  0     0  0
 10 11  1  0     0  0
 11 12  2  0     0  0
 12 13  1  0     0  0
 13 14  2  0     0  0
 14 15  1  0     0  0
 10 15  2  0     0  0
 13 16  1  0     0  0
 16 17  2  0     0  0
 17 18  1  0     0  0
 18 19  2  0     0  0
 14 19  1  0     0  0
 15 20  1  0     0  0
 11 21  1  0     0  0
 18 22  1  0     0  0
 22 23  1  0     0  0
 23 24  1  0     0  0
 24 25  1  0     0  0
 25 26  1  0     0  0
 26 27  1  0     0  0
 27 28  1  0     0  0
 24 28  1  0     0  0
 25 29  1  0     0  0
 16 30  1  0     0  0
 30 31  1  0     0  0
 31 32  1  0     0  0
 32 33  1  0     0  0
 33 34  1  0     0  0
 34 35  1  0     0  0
 30 35  1  0     0  0
 35 36  1  0     0  0
 33 37  1  0     0  0
 37 38  2  0     0  0
 37 39  1  0     0  0
 39 40  2  0     0  0
  8 41  1  0     0  0
  8 42  1  0     0  0
  8 43  1  0     0  0
 44 45  1  0     0  0
 45 46  1  0     0  0
 45 47  2  0     0  0
 46 48  1  0     0  0
 48 49  1  0     0  0
 49 50  1  0     0  0
 50 51  1  0     0  0
 51 52  1  0     0  0
 51 53  2  0     0  0
M  END
