 
 
 
 38 41  0  0  0  0  0  0  0  0999 V2000
   19.8471  -15.6393    0.0000 O   0  0  0  0  0  0  0  0  0  0  0  0
   21.0394  -16.3406    0.0000 C   0  0  0  0  0  0  0  0  0  0  0  0
   21.0394  -17.7432    0.0000 C   0  0  0  0  0  0  0  0  0  0  0  0
   22.3017  -18.4445    0.0000 C   0  0  0  0  0  0  0  0  0  0  0  0
   23.4940  -17.7432    0.0000 C   0  0  0  0  0  0  0  0  0  0  0  0
   23.4940  -16.3406    0.0000 C   0  0  0  0  0  0  0  0  0  0  0  0
   22.3017  -15.6393    0.0000 C   0  0  0  0  0  0  0  0  0  0  0  0
   22.3017  -19.8471    0.0000 C   0  0  0  0  0  0  0  0  0  0  0  0
   24.7563  -18.4445    0.0000 O   0  0  0  0  0  0  0  0  0  0  0  0
   25.9486  -17.7432    0.0000 C   0  0  0  0  0  0  0  0  0  0  0  0
   27.1408  -18.4445    0.0000 C   0  0  0  0  0  0  0  0  0  0  0  0
   28.3330  -17.7432    0.0000 O   0  0  0  0  0  0  0  0  0  0  0  0
   27.1408  -19.8471    0.0000 O   0  0  0  0  0  0  0  0  0  0  0  0
   18.6664  -16.3079    0.0000 C   0  0  0  0  0  0  0  0  0  0  0  0
   18.6664  -17.7079    0.0000 C   0  0  0  0  0  0  0  0  0  0  0  0
   17.4709  -18.3983    0.0000 C   0  0  0  0  0  0  0  0  0  0  0  0
   16.2853  -17.7139    0.0000 C   0  0  0  0  0  0  0  0  0  0  0  0
   17.4708  -19.8097    0.0000 C   0  0  0  0  0  0  0  0  0  0  0  0
   16.2803  -20.4972    0.0000 C   0  0  0  0  0  0  0  0  0  0  0  0
   16.2805  -21.8972    0.0000 C   0  0  0  0  0  0  0  0  0  0  0  0
   17.4930  -22.5971    0.0000 C   0  0  0  0  0  0  0  0  0  0  0  0
   18.6835  -21.9095    0.0000 C   0  0  0  0  0  0  0  0  0  0  0  0
   18.6833  -20.5095    0.0000 C   0  0  0  0  0  0  0  0  0  0  0  0
   17.4931  -24.0100    0.0000 F   0  0  0  0  0  0  0  0  0  0  0  0
   16.2851  -16.3102    0.0000 C   0  0  0  0  0  0  0  0  0  0  0  0
   15.0726  -15.6104    0.0000 C   0  0  0  0  0  0  0  0  0  0  0  0
   13.8603  -16.3105    0.0000 C   0  0  0  0  0  0  0  0  0  0  0  0
   13.8604  -17.7142    0.0000 C   0  0  0  0  0  0  0  0  0  0  0  0
   15.0729  -18.4141    0.0000 C   0  0  0  0  0  0  0  0  0  0  0  0
   12.6473  -15.6104    0.0000 C   0  0  0  0  0  0  0  0  0  0  0  0
   11.4349  -14.9104    0.0000 C   0  0  0  0  0  0  0  0  0  0  0  0
   10.2225  -14.2104    0.0000 C   0  0  0  0  0  0  0  0  0  0  0  0
    9.0084  -14.9114    0.0000 N   0  0  0  0  0  0  0  0  0  0  0  0
    7.8117  -14.2203    0.0000 C   0  0  0  0  0  0  0  0  0  0  0  0
    6.5992  -14.9202    0.0000 C   0  0  0  0  0  0  0  0  0  0  0  0
    6.5990  -16.3202    0.0000 O   0  0  0  0  0  0  0  0  0  0  0  0
    7.7957  -17.0112    0.0000 C   0  0  0  0  0  0  0  0  0  0  0  0
    9.0082  -16.3114    0.0000 C   0  0  0  0  0  0  0  0  0  0  0  0
  1  2  1  0     0  0
  2  3  2  0     0  0
  3  4  1  0     0  0
  4  5  2  0     0  0
  5  6  1  0     0  0
  6  7  2  0     0  0
  2  7  1  0     0  0
  4  8  1  0     0  0
  5  9  1  0     0  0
  9 10  1  0     0  0
 10 11  1  0     0  0
 11 12  1  0     0  0
 11 13  2  0     0  0
  1 14  1  0     0  0
 14 15  1  0     0  0
 15 16  2  0     0  0
 16 17  1  0     0  0
 16 18  1  0     0  0
 18 19  2  0     0  0
 19 20  1  0     0  0
 20 21  2  0     0  0
 21 22  1  0     0  0
 22 23  2  0     0  0
 18 23  1  0     0  0
 21 24  1  0     0  0
 17 25  2  0     0  0
 25 26  1  0     0  0
 26 27  2  0     0  0
 27 28  1  0     0  0
 28 29  2  0     0  0
 17 29  1  0     0  0
 27 30  1  0     0  0
 30 31  3  0     0  0
 31 32  1  0     0  0
 32 33  1  0     0  0
 33 34  1  0     0  0
 34 35  1  0     0  0
 35 36  1  0     0  0
 36 37  1  0     0  0
 37 38  1  0     0  0
 33 38  1  0     0  0
M  END
