 
 
 
 57 65  0  0  1  0  0  0  0  0999 V2000
    8.8900  -18.4100    0.0000 C   0  0  0  0  0  0  0  0  0  0  0  0
    8.8900  -19.8100    0.0000 C   0  0  0  0  0  0  0  0  0  0  0  0
   10.0800  -20.5100    0.0000 C   0  0  0  0  0  0  0  0  0  0  0  0
   11.3400  -19.8100    0.0000 C   0  0  0  0  0  0  0  0  0  0  0  0
   11.3400  -18.4100    0.0000 C   0  0  0  0  0  0  0  0  0  0  0  0
   10.0800  -17.7100    0.0000 C   0  0  0  0  0  0  0  0  0  0  0  0
   12.5300  -17.7100    0.0000 C   0  0  0  0  0  0  0  0  0  0  0  0
   12.4600  -15.3300    0.0000 C   0  0  0  0  0  0  0  0  0  0  0  0
   11.8300  -16.5900    0.0000 C   0  0  0  0  0  0  0  0  0  0  0  0
   13.9300  -17.7100    0.0000 C   0  0  0  0  0  0  0  0  0  0  0  0
   14.6300  -16.4500    0.0000 C   0  0  0  0  0  0  0  0  0  0  0  0
   13.9300  -15.3300    0.0000 C   0  0  0  0  0  0  0  0  0  0  0  0
   16.0300  -16.4500    0.0000 C   0  0  0  0  0  0  0  0  0  0  0  0
   16.6600  -15.1900    0.0000 C   0  0  0  0  0  0  0  0  0  0  0  0
   15.9600  -14.0700    0.0000 C   0  0  0  0  0  0  0  0  0  0  0  0
   14.5600  -14.0700    0.0000 C   0  0  0  0  0  0  0  0  0  0  0  0
   15.1200  -18.4100    0.0000 C   0  0  0  0  0  0  0  0  0  0  0  0
   15.1200  -19.8100    0.0000 C   0  0  0  0  0  0  0  0  0  0  0  0
   16.3100  -20.5100    0.0000 C   0  0  0  0  0  0  0  0  0  0  0  0
   17.5700  -19.8100    0.0000 C   0  0  0  0  0  0  0  0  0  0  0  0
   17.5700  -18.4100    0.0000 C   0  0  0  0  0  0  0  0  0  0  0  0
   16.3100  -17.7100    0.0000 C   0  0  0  0  0  0  0  0  0  0  0  0
   18.7766  -20.5200    0.0000 N   0  0  0  0  0  0  0  0  0  0  0  0
   18.7650  -21.9100    0.0000 C   0  0  0  0  0  0  0  0  0  0  0  0
   19.9716  -22.6201    0.0000 C   0  0  0  0  0  0  0  0  0  0  0  0
   21.1898  -21.9302    0.0000 C   0  0  0  0  0  0  0  0  0  0  0  0
   21.2014  -20.5402    0.0000 C   0  0  0  0  0  0  0  0  0  0  0  0
   19.9948  -19.8301    0.0000 C   0  0  0  0  0  0  0  0  0  0  0  0
   22.4022  -22.6439    0.0000 C   0  0  0  0  0  0  0  0  0  0  0  0
   23.6332  -21.9473    0.0000 N   0  0  0  0  0  0  0  0  0  0  0  0
   24.8739  -22.6775    0.0000 C   0  0  0  0  0  0  0  0  0  0  0  0
   26.0921  -21.9877    0.0000 C   0  0  0  0  0  0  0  0  0  0  0  0
   26.1038  -20.5877    0.0000 N   0  0  0  0  0  0  0  0  0  0  0  0
   24.8632  -19.8575    0.0000 C   0  0  0  0  0  0  0  0  0  0  0  0
   23.6449  -20.5474    0.0000 C   0  0  0  0  0  0  0  0  0  0  0  0
   27.3301  -19.8934    0.0000 C   0  0  0  0  0  0  0  0  0  0  0  0
   28.5084  -20.5870    0.0000 C   0  0  0  0  0  0  0  0  0  0  0  0
   29.7267  -19.8973    0.0000 C   0  0  0  0  0  0  0  0  0  0  0  0
   29.7385  -18.4973    0.0000 C   0  0  0  0  0  0  0  0  0  0  0  0
   28.5602  -17.8037    0.0000 C   0  0  0  0  0  0  0  0  0  0  0  0
   27.2719  -18.4934    0.0000 C   0  0  0  0  0  0  0  0  0  0  0  0
   31.0545  -20.3411    0.0000 C   0  0  0  0  0  0  0  0  0  0  0  0
   31.8869  -19.2155    0.0000 N   0  0  0  0  0  0  0  0  0  0  0  0
   31.0736  -18.0759    0.0000 C   0  0  0  0  0  0  0  0  0  0  0  0
   31.5229  -16.7319    0.0000 O   0  0  0  0  0  0  0  0  0  0  0  0
   33.3198  -19.2267    0.0000 C   0  0  0  0  0  0  0  0  0  0  0  0
   34.0204  -20.4622    0.0000 C   0  0  0  0  0  0  0  0  0  0  0  0
   35.4204  -20.4731    0.0000 N   0  0  0  0  0  0  0  0  0  0  0  0
   36.1297  -19.2661    0.0000 C   0  0  0  0  0  0  0  0  0  0  0  0
   35.4291  -18.0306    0.0000 C   0  0  0  0  0  0  0  0  0  0  0  0
   34.0292  -18.0198    0.0000 C   0  0  0  0  0  0  0  0  0  0  0  0
   33.3205  -21.6527    0.0000 O   0  0  0  0  0  0  0  0  0  0  0  0
   37.5197  -19.2767    0.0000 O   0  0  0  0  0  0  0  0  0  0  0  0
   16.6387  -12.8455    0.0000 O   0  0  0  0  0  0  0  0  0  0  0  0
   12.5300  -19.1100    0.0000 H   0  0  0  0  0  0  0  0  0  0  0  0
   13.9300  -19.1100    0.0000 H   0  0  0  0  0  0  0  0  0  0  0  0
   32.6198  -18.0143    0.0000 H   0  0  0  0  0  0  0  0  0  0  0  0
  1  2  2  0     0  0
  2  3  1  0     0  0
  3  4  2  0     0  0
  4  5  1  0     0  0
  5  6  2  0     0  0
  1  6  1  0     0  0
  7  5  1  1     0  0
  8  9  1  0     0  0
  9  7  1  0     0  0
  7 10  1  0     0  0
 10 11  1  0     0  0
 11 12  1  0     0  0
  8 12  1  0     0  0
 11 13  2  0     0  0
 13 14  1  0     0  0
 14 15  2  0     0  0
 15 16  1  0     0  0
 12 16  2  0     0  0
 17 18  2  0     0  0
 18 19  1  0     0  0
 19 20  2  0     0  0
 20 21  1  0     0  0
 21 22  2  0     0  0
 17 22  1  0     0  0
 10 17  1  1     0  0
 20 23  1  0     0  0
 23 24  1  0     0  0
 24 25  1  0     0  0
 25 26  1  0     0  0
 26 27  1  0     0  0
 27 28  1  0     0  0
 23 28  1  0     0  0
 26 29  1  0     0  0
 29 30  1  0     0  0
 30 31  1  0     0  0
 31 32  1  0     0  0
 32 33  1  0     0  0
 33 34  1  0     0  0
 34 35  1  0     0  0
 30 35  1  0     0  0
 33 36  1  0     0  0
 36 37  2  0     0  0
 37 38  1  0     0  0
 38 39  2  0     0  0
 39 40  1  0     0  0
 40 41  2  0     0  0
 36 41  1  0     0  0
 38 42  1  0     0  0
 42 43  1  0     0  0
 43 44  1  0     0  0
 39 44  1  0     0  0
 44 45  2  0     0  0
 46 43  1  1     0  0
 46 47  1  0     0  0
 47 48  1  0     0  0
 48 49  1  0     0  0
 49 50  1  0     0  0
 50 51  1  0     0  0
 46 51  1  0     0  0
 47 52  2  0     0  0
 49 53  2  0     0  0
 15 54  1  0     0  0
  7 55  1  6     0  0
 10 56  1  6     0  0
 46 57  1  6     0  0
M  END
