 
 
 
 22 24  0  0  1  0  0  0  0  0999 V2000
   25.3400   -8.5400    0.0000 C   0  0  0  0  0  0  0  0  0  0  0  0
   25.3400   -9.9400    0.0000 C   0  0  0  0  0  0  0  0  0  0  0  0
   26.5300  -10.6400    0.0000 N   0  0  0  0  0  0  0  0  0  0  0  0
   27.7900   -9.9400    0.0000 C   0  0  0  0  0  0  0  0  0  0  0  0
   27.7900   -8.5400    0.0000 N   0  0  0  0  0  0  0  0  0  0  0  0
   26.5300   -7.8400    0.0000 C   0  0  0  0  0  0  0  0  0  0  0  0
   24.0100   -8.1200    0.0000 N   0  0  0  0  0  0  0  0  0  0  0  0
   23.1700   -9.2400    0.0000 C   0  0  0  0  0  0  0  0  0  0  0  0
   24.0100  -10.3600    0.0000 C   0  0  0  0  0  0  0  0  0  0  0  0
   26.5300   -6.4400    0.0000 O   0  0  0  0  0  0  0  0  0  0  0  0
   28.9800  -10.6400    0.0000 S   0  0  0  0  0  0  0  0  0  0  0  0
   26.5300  -12.0400    0.0000 C   0  0  0  0  0  0  0  0  0  0  0  0
   27.7453  -12.7351    0.0000 C   0  0  0  0  0  0  0  0  0  0  0  0
   27.7511  -14.1397    0.0000 C   0  0  0  0  0  0  0  0  0  0  0  0
   28.9664  -14.8347    0.0000 C   0  0  0  0  0  0  0  0  0  0  0  0
   30.1759  -14.1297    0.0000 C   0  0  0  0  0  0  0  0  0  0  0  0
   30.1701  -12.7251    0.0000 C   0  0  0  0  0  0  0  0  0  0  0  0
   28.9548  -12.0301    0.0000 C   0  0  0  0  0  0  0  0  0  0  0  0
   26.5184  -14.8585    0.0000 C   0  0  0  0  0  0  0  0  0  0  0  0
   25.3039  -14.1642    0.0000 C   0  0  0  0  0  0  0  0  0  0  0  0
   26.5245  -16.2400    0.0000 N   0  0  0  0  0  0  0  0  0  0  0  0
   31.3912  -14.8246    0.0000 Cl  0  0  0  0  0  0  0  0  0  0  0  0
  1  2  2  0     0  0
  2  3  1  0     0  0
  3  4  1  0     0  0
  4  5  1  0     0  0
  5  6  1  0     0  0
  1  6  1  0     0  0
  1  7  1  0     0  0
  7  8  1  0     0  0
  8  9  2  0     0  0
  2  9  1  0     0  0
  6 10  2  0     0  0
  4 11  2  0     0  0
  3 12  1  0     0  0
 12 13  1  0     0  0
 13 14  2  0     0  0
 14 15  1  0     0  0
 15 16  2  0     0  0
 16 17  1  0     0  0
 17 18  2  0     0  0
 13 18  1  0     0  0
 14 19  1  0     0  0
 19 20  1  0     0  0
 19 21  1  6     0  0
 16 22  1  0     0  0
M  END
