 
 
 
 41 43  0  0  1  0  0  0  0  0999 V2000
   24.0497  -15.5453    0.0000 C   0  0  1  0  0  0  0  0  0  0  0  0
   15.7544  -16.1726    0.0000 N   0  0  3  0  0  0  0  0  0  0  0  0
   16.9394  -15.4755    0.0000 C   0  0  0  0  0  0  0  0  0  0  0  0
   14.6390  -15.4755    0.0000 S   0  0  0  0  0  0  0  0  0  0  0  0
   18.1942  -16.1726    0.0000 C   0  0  1  0  0  0  0  0  0  0  0  0
   13.3843  -16.1726    0.0000 C   0  0  3  0  0  0  0  0  0  0  0  0
   19.3792  -15.4755    0.0000 C   0  0  2  0  0  0  0  0  0  0  0  0
   19.3792  -14.0814    0.0000 C   0  0  0  0  0  0  0  0  0  0  0  0
   20.4945  -16.1726    0.0000 N   0  0  0  0  0  0  0  0  0  0  0  0
   18.1942  -13.4540    0.0000 C   0  0  0  0  0  0  0  0  0  0  0  0
   21.6796  -15.4755    0.0000 C   0  0  0  0  0  0  0  0  0  0  0  0
   16.9394  -14.0814    0.0000 C   0  0  0  0  0  0  0  0  0  0  0  0
   18.1942  -12.0598    0.0000 C   0  0  0  0  0  0  0  0  0  0  0  0
   22.9343  -16.1726    0.0000 O   0  0  0  0  0  0  0  0  0  0  0  0
   21.6796  -14.0814    0.0000 O   0  0  0  0  0  0  0  0  0  0  0  0
   15.7544  -13.4540    0.0000 C   0  0  0  0  0  0  0  0  0  0  0  0
   16.9394  -11.3628    0.0000 C   0  0  0  0  0  0  0  0  0  0  0  0
   15.7544  -12.0598    0.0000 C   0  0  0  0  0  0  0  0  0  0  0  0
   13.3843  -17.5668    0.0000 C   0  0  0  0  0  0  0  0  0  0  0  0
   12.1993  -18.1942    0.0000 C   0  0  0  0  0  0  0  0  0  0  0  0
   11.0839  -17.5668    0.0000 C   0  0  0  0  0  0  0  0  0  0  0  0
   11.0839  -16.1726    0.0000 C   0  0  0  0  0  0  0  0  0  0  0  0
   12.1993  -15.4755    0.0000 C   0  0  0  0  0  0  0  0  0  0  0  0
   15.7544  -18.5427    0.0000 C   0  0  0  0  0  0  0  0  0  0  0  0
   18.1245  -17.5668    0.0000 O   0  0  0  0  0  0  0  0  0  0  0  0
   15.6150  -14.4996    0.0000 O   0  0  0  0  0  0  0  0  0  0  0  0
   13.6631  -14.4996    0.0000 O   0  0  0  0  0  0  0  0  0  0  0  0
   25.3741  -15.9635    0.0000 C   0  0  0  0  0  0  0  0  0  0  0  0
   26.2106  -14.8482    0.0000 C   0  0  0  0  0  0  0  0  0  0  0  0
   25.3741  -13.7328    0.0000 O   0  0  0  0  0  0  0  0  0  0  0  0
   24.0497  -14.1511    0.0000 C   0  0  0  0  0  0  0  0  0  0  0  0
   26.2803  -17.0788    0.0000 C   0  0  0  0  0  0  0  0  0  0  0  0
   27.4654  -16.5909    0.0000 C   0  0  0  0  0  0  0  0  0  0  0  0
   27.4654  -15.2664    0.0000 O   0  0  0  0  0  0  0  0  0  0  0  0
   27.0471  -13.6631    0.0000 H   0  0  0  0  0  0  0  0  0  0  0  0
   24.6073  -17.1485    0.0000 H   0  0  0  0  0  0  0  0  0  0  0  0
    9.8292  -18.1942    0.0000 N   0  0  0  0  0  0  0  0  0  0  0  0
   17.0091  -19.2398    0.0000 C   0  0  0  0  0  0  0  0  0  0  0  0
   17.0091  -20.5643    0.0000 C   0  0  0  0  0  0  0  0  0  0  0  0
   18.1942  -18.4730    0.0000 C   0  0  0  0  0  0  0  0  0  0  0  0
   26.5300  -20.8600    0.0000 O   0  0  0  0  0  0  0  0  0  0  0  0
  2  3  1  0     0  0
  2  4  1  0     0  0
  3  5  1  0     0  0
  4  6  1  0     0  0
  5  7  1  0     0  0
  7  8  1  6     0  0
  7  9  1  0     0  0
  8 10  1  0     0  0
  9 11  1  0     0  0
 10 12  2  0     0  0
 10 13  1  0     0  0
 11 14  1  0     0  0
 11 15  2  0     0  0
 12 16  1  0     0  0
 13 17  2  0     0  0
 16 18  2  0     0  0
 17 18  1  0     0  0
  6 19  2  0     0  0
 19 20  1  0     0  0
 20 21  2  0     0  0
 21 22  1  0     0  0
 22 23  2  0     0  0
  6 23  1  0     0  0
  2 24  1  0     0  0
  5 25  1  6     0  0
  4 26  2  0     0  0
  4 27  2  0     0  0
  1 14  1  1     0  0
  1 28  1  0     0  0
 28 29  1  0     0  0
 29 30  1  0     0  0
 30 31  1  0     0  0
  1 31  1  0     0  0
 28 32  1  0     0  0
 32 33  1  0     0  0
 33 34  1  0     0  0
 29 34  1  0     0  0
 29 35  1  6     0  0
 28 36  1  6     0  0
 21 37  1  0     0  0
 24 38  1  0     0  0
 38 39  1  0     0  0
 38 40  1  0     0  0
M  STY  1   1 SRU
M  SLB  1   1   1
M  SCN  1   1 HT 
M  SAL   1  1  41
M  SDI   1  4   24.3600  -21.7000   24.3600  -19.8800
M  SDI   1  4   27.3000  -19.8800   27.3000  -21.7000
M  SMT   1 x
M  END
