 
 
 
 33 36  0  0  0  0  0  0  0  0999 V2000
   25.9700  -16.6600    0.0000 C   0  0  0  0  0  0  0  0  0  0  0  0
   25.9700  -18.0600    0.0000 C   0  0  0  0  0  0  0  0  0  0  0  0
   27.1600  -18.7600    0.0000 C   0  0  0  0  0  0  0  0  0  0  0  0
   28.4200  -18.0600    0.0000 C   0  0  0  0  0  0  0  0  0  0  0  0
   28.4200  -16.6600    0.0000 C   0  0  0  0  0  0  0  0  0  0  0  0
   27.1600  -15.9600    0.0000 C   0  0  0  0  0  0  0  0  0  0  0  0
   29.6100  -15.9600    0.0000 C   0  0  0  0  0  0  0  0  0  0  0  0
   24.7800  -15.9600    0.0000 C   0  0  0  0  0  0  0  0  0  0  0  0
   23.5900  -16.6600    0.0000 C   0  0  0  0  0  0  0  0  0  0  0  0
   22.4000  -15.9600    0.0000 O   0  0  0  0  0  0  0  0  0  0  0  0
   21.2100  -16.6600    0.0000 C   0  0  0  0  0  0  0  0  0  0  0  0
   20.0200  -15.9600    0.0000 C   0  0  0  0  0  0  0  0  0  0  0  0
   18.7600  -16.6600    0.0000 C   0  0  0  0  0  0  0  0  0  0  0  0
   18.7600  -18.0600    0.0000 C   0  0  0  0  0  0  0  0  0  0  0  0
   19.9500  -18.7600    0.0000 C   0  0  0  0  0  0  0  0  0  0  0  0
   21.2100  -18.0600    0.0000 C   0  0  0  0  0  0  0  0  0  0  0  0
   22.4000  -18.7600    0.0000 O   0  0  0  0  0  0  0  0  0  0  0  0
   23.5900  -18.0600    0.0000 C   0  0  0  0  0  0  0  0  0  0  0  0
   17.5700  -15.9600    0.0000 C   0  0  0  0  0  0  0  0  0  0  0  0
   16.3800  -16.6600    0.0000 N   0  0  0  0  0  0  0  0  0  0  0  0
   17.5700  -14.5600    0.0000 O   0  0  0  0  0  0  0  0  0  0  0  0
   15.1900  -15.9600    0.0000 C   0  0  0  0  0  0  0  0  0  0  0  0
   14.4232  -17.1250    0.0000 C   0  0  0  0  0  0  0  0  0  0  0  0
   13.0291  -17.1664    0.0000 O   0  0  0  0  0  0  0  0  0  0  0  0
   15.0988  -18.3352    0.0000 O   0  0  0  0  0  0  0  0  0  0  0  0
   15.1900  -14.5600    0.0000 C   0  0  0  0  0  0  0  0  0  0  0  0
   13.8600  -16.3800    0.0000 C   0  0  0  0  0  0  0  0  0  0  0  0
   13.0200  -15.2600    0.0000 C   0  0  0  0  0  0  0  0  0  0  0  0
   13.8600  -14.1400    0.0000 C   0  0  0  0  0  0  0  0  0  0  0  0
   13.3101  -12.8525    0.0000 C   0  0  0  0  0  0  0  0  0  0  0  0
   11.9201  -12.6851    0.0000 C   0  0  0  0  0  0  0  0  0  0  0  0
   11.0801  -13.8051    0.0000 C   0  0  0  0  0  0  0  0  0  0  0  0
   11.6301  -15.0925    0.0000 C   0  0  0  0  0  0  0  0  0  0  0  0
  1  2  2  0     0  0
  2  3  1  0     0  0
  3  4  2  0     0  0
  4  5  1  0     0  0
  5  6  2  0     0  0
  1  6  1  0     0  0
  5  7  1  0     0  0
  1  8  1  0     0  0
  8  9  1  0     0  0
  9 10  1  0     0  0
 10 11  1  0     0  0
 11 12  2  0     0  0
 12 13  1  0     0  0
 13 14  2  0     0  0
 14 15  1  0     0  0
 15 16  2  0     0  0
 11 16  1  0     0  0
 16 17  1  0     0  0
 17 18  1  0     0  0
 13 19  1  0     0  0
 19 20  1  0     0  0
 19 21  2  0     0  0
 20 22  1  0     0  0
 22 23  1  0     0  0
 23 24  1  0     0  0
 23 25  2  0     0  0
 26 22  1  0     0  0
 22 27  1  0     0  0
 27 28  1  0     0  0
 28 29  1  0     0  0
 26 29  1  0     0  0
 29 30  2  0     0  0
 30 31  1  0     0  0
 31 32  2  0     0  0
 32 33  1  0     0  0
 28 33  2  0     0  0
M  END
