 
 
 
137152  0  0  1  0  0  0  0  0999 V2000
   19.1800  -17.5000    0.0000 C   0  0  0  0  0  0  0  0  0  0  0  0
   19.1800  -18.9000    0.0000 C   0  0  0  0  0  0  0  0  0  0  0  0
   20.3924  -19.6000    0.0000 C   0  0  0  0  0  0  0  0  0  0  0  0
   21.6049  -18.9000    0.0000 C   0  0  0  0  0  0  0  0  0  0  0  0
   21.6049  -17.5000    0.0000 C   0  0  0  0  0  0  0  0  0  0  0  0
   20.3924  -16.8000    0.0000 C   0  0  0  0  0  0  0  0  0  0  0  0
   20.3924  -15.4002    0.0000 N   0  0  0  0  0  0  0  0  0  0  0  0
   21.5103  -14.5878    0.0000 N   0  0  0  0  0  0  0  0  0  0  0  0
   21.0831  -13.2736    0.0000 C   0  0  0  0  0  0  0  0  0  0  0  0
   19.7012  -13.2737    0.0000 C   0  0  0  0  0  0  0  0  0  0  0  0
   19.2743  -14.5881    0.0000 N   0  0  0  0  0  0  0  0  0  0  0  0
   17.9676  -16.8000    0.0000 C   0  0  0  0  0  0  0  0  0  0  0  0
   16.7721  -17.4904    0.0000 N   0  0  0  0  0  0  0  0  0  0  0  0
   17.9675  -15.4002    0.0000 O   0  0  0  0  0  0  0  0  0  0  0  0
   15.5847  -16.8049    0.0000 C   0  0  0  0  0  0  0  0  0  0  0  0
   14.3723  -17.5050    0.0000 O   0  0  0  0  0  0  0  0  0  0  0  0
   14.3724  -18.9050    0.0000 C   0  0  0  0  0  0  0  0  0  0  0  0
   15.5597  -19.5904    0.0000 C   0  0  0  0  0  0  0  0  0  0  0  0
   16.7721  -18.8904    0.0000 C   0  0  0  0  0  0  0  0  0  0  0  0
   16.5747  -15.8150    0.0000 H   0  0  0  0  0  0  0  0  0  0  0  0
   14.5948  -15.8150    0.0000 C   0  0  0  0  0  0  0  0  0  0  0  0
   13.1948  -15.8150    0.0000 N   0  0  0  0  0  0  0  0  0  0  0  0
   12.3628  -14.6692    0.0000 C   0  0  0  0  0  0  0  0  0  0  0  0
   11.0159  -15.1064    0.0000 C   0  0  0  0  0  0  0  0  0  0  0  0
   11.0155  -16.5225    0.0000 C   0  0  0  0  0  0  0  0  0  0  0  0
   12.3622  -16.9604    0.0000 N   0  0  0  0  0  0  0  0  0  0  0  0
    9.8674  -17.3565    0.0000 C   0  0  0  0  0  0  0  0  0  0  0  0
    8.5920  -16.7885    0.0000 N   0  0  0  0  0  0  0  0  0  0  0  0
    7.4593  -17.6113    0.0000 C   0  0  0  0  0  0  0  0  0  0  0  0
    7.6055  -19.0037    0.0000 C   0  0  0  0  0  0  0  0  0  0  0  0
    8.8809  -19.5716    0.0000 C   0  0  0  0  0  0  0  0  0  0  0  0
   10.0136  -18.7488    0.0000 C   0  0  0  0  0  0  0  0  0  0  0  0
    6.5047  -19.8029    0.0000 F   0  0  0  0  0  0  0  0  0  0  0  0
   20.3924  -20.9998    0.0000 C   0  0  0  0  0  0  0  0  0  0  0  0
   25.4100  -17.6400    0.0000 O   0  0  0  0  0  0  0  0  0  0  0  0
   19.1800  -17.5000    0.0000 C   0  0  0  0  0  0  0  0  0  0  0  0
   19.1800  -18.9000    0.0000 C   0  0  0  0  0  0  0  0  0  0  0  0
   20.3924  -19.6000    0.0000 C   0  0  0  0  0  0  0  0  0  0  0  0
   21.6049  -18.9000    0.0000 C   0  0  0  0  0  0  0  0  0  0  0  0
   21.6049  -17.5000    0.0000 C   0  0  0  0  0  0  0  0  0  0  0  0
   20.3924  -16.8000    0.0000 C   0  0  0  0  0  0  0  0  0  0  0  0
   20.3924  -15.4002    0.0000 N   0  0  0  0  0  0  0  0  0  0  0  0
   21.5103  -14.5878    0.0000 N   0  0  0  0  0  0  0  0  0  0  0  0
   21.0831  -13.2736    0.0000 C   0  0  0  0  0  0  0  0  0  0  0  0
   19.7012  -13.2737    0.0000 C   0  0  0  0  0  0  0  0  0  0  0  0
   19.2743  -14.5881    0.0000 N   0  0  0  0  0  0  0  0  0  0  0  0
   20.3924  -20.9998    0.0000 C   0  0  0  0  0  0  0  0  0  0  0  0
   17.9676  -16.8000    0.0000 C   0  0  0  0  0  0  0  0  0  0  0  0
   16.7721  -17.4904    0.0000 N   0  0  0  0  0  0  0  0  0  0  0  0
   15.5847  -16.8049    0.0000 C   0  0  0  0  0  0  0  0  0  0  0  0
   14.3723  -17.5050    0.0000 O   0  0  0  0  0  0  0  0  0  0  0  0
   14.3724  -18.9050    0.0000 C   0  0  0  0  0  0  0  0  0  0  0  0
   15.5597  -19.5904    0.0000 C   0  0  0  0  0  0  0  0  0  0  0  0
   16.7721  -18.8904    0.0000 C   0  0  0  0  0  0  0  0  0  0  0  0
   16.5747  -15.8150    0.0000 H   0  0  0  0  0  0  0  0  0  0  0  0
   14.5948  -15.8150    0.0000 C   0  0  0  0  0  0  0  0  0  0  0  0
   13.1948  -15.8150    0.0000 N   0  0  0  0  0  0  0  0  0  0  0  0
   12.3628  -14.6692    0.0000 C   0  0  0  0  0  0  0  0  0  0  0  0
   11.0159  -15.1064    0.0000 C   0  0  0  0  0  0  0  0  0  0  0  0
   11.0155  -16.5225    0.0000 C   0  0  0  0  0  0  0  0  0  0  0  0
   12.3622  -16.9604    0.0000 N   0  0  0  0  0  0  0  0  0  0  0  0
    9.8674  -17.3565    0.0000 C   0  0  0  0  0  0  0  0  0  0  0  0
    8.5920  -16.7885    0.0000 N   0  0  0  0  0  0  0  0  0  0  0  0
    7.4593  -17.6113    0.0000 C   0  0  0  0  0  0  0  0  0  0  0  0
    7.6055  -19.0037    0.0000 C   0  0  0  0  0  0  0  0  0  0  0  0
    8.8809  -19.5716    0.0000 C   0  0  0  0  0  0  0  0  0  0  0  0
   10.0136  -18.7488    0.0000 C   0  0  0  0  0  0  0  0  0  0  0  0
    6.5047  -19.8029    0.0000 F   0  0  0  0  0  0  0  0  0  0  0  0
   17.9675  -15.4002    0.0000 O   0  0  0  0  0  0  0  0  0  0  0  0
   19.1800  -17.5000    0.0000 C   0  0  0  0  0  0  0  0  0  0  0  0
   19.1800  -18.9000    0.0000 C   0  0  0  0  0  0  0  0  0  0  0  0
   20.3924  -19.6000    0.0000 C   0  0  0  0  0  0  0  0  0  0  0  0
   21.6049  -18.9000    0.0000 C   0  0  0  0  0  0  0  0  0  0  0  0
   21.6049  -17.5000    0.0000 C   0  0  0  0  0  0  0  0  0  0  0  0
   20.3924  -16.8000    0.0000 C   0  0  0  0  0  0  0  0  0  0  0  0
   20.3924  -15.4002    0.0000 N   0  0  0  0  0  0  0  0  0  0  0  0
   21.5103  -14.5878    0.0000 N   0  0  0  0  0  0  0  0  0  0  0  0
   21.0831  -13.2736    0.0000 C   0  0  0  0  0  0  0  0  0  0  0  0
   19.7012  -13.2737    0.0000 C   0  0  0  0  0  0  0  0  0  0  0  0
   19.2743  -14.5881    0.0000 N   0  0  0  0  0  0  0  0  0  0  0  0
   20.3924  -20.9998    0.0000 C   0  0  0  0  0  0  0  0  0  0  0  0
   17.9676  -16.8000    0.0000 C   0  0  0  0  0  0  0  0  0  0  0  0
   16.7721  -17.4904    0.0000 N   0  0  0  0  0  0  0  0  0  0  0  0
   15.5847  -16.8049    0.0000 C   0  0  0  0  0  0  0  0  0  0  0  0
   14.3723  -17.5050    0.0000 O   0  0  0  0  0  0  0  0  0  0  0  0
   14.3724  -18.9050    0.0000 C   0  0  0  0  0  0  0  0  0  0  0  0
   15.5597  -19.5904    0.0000 C   0  0  0  0  0  0  0  0  0  0  0  0
   16.7721  -18.8904    0.0000 C   0  0  0  0  0  0  0  0  0  0  0  0
   16.5747  -15.8150    0.0000 H   0  0  0  0  0  0  0  0  0  0  0  0
   14.5948  -15.8150    0.0000 C   0  0  0  0  0  0  0  0  0  0  0  0
   13.1948  -15.8150    0.0000 N   0  0  0  0  0  0  0  0  0  0  0  0
   12.3628  -14.6692    0.0000 C   0  0  0  0  0  0  0  0  0  0  0  0
   11.0159  -15.1064    0.0000 C   0  0  0  0  0  0  0  0  0  0  0  0
   11.0155  -16.5225    0.0000 C   0  0  0  0  0  0  0  0  0  0  0  0
   12.3622  -16.9604    0.0000 N   0  0  0  0  0  0  0  0  0  0  0  0
    9.8674  -17.3565    0.0000 C   0  0  0  0  0  0  0  0  0  0  0  0
    8.5920  -16.7885    0.0000 N   0  0  0  0  0  0  0  0  0  0  0  0
    7.4593  -17.6113    0.0000 C   0  0  0  0  0  0  0  0  0  0  0  0
    7.6055  -19.0037    0.0000 C   0  0  0  0  0  0  0  0  0  0  0  0
    8.8809  -19.5716    0.0000 C   0  0  0  0  0  0  0  0  0  0  0  0
   10.0136  -18.7488    0.0000 C   0  0  0  0  0  0  0  0  0  0  0  0
    6.5047  -19.8029    0.0000 F   0  0  0  0  0  0  0  0  0  0  0  0
   17.9675  -15.4002    0.0000 O   0  0  0  0  0  0  0  0  0  0  0  0
   19.1800  -17.5000    0.0000 C   0  0  0  0  0  0  0  0  0  0  0  0
   19.1800  -18.9000    0.0000 C   0  0  0  0  0  0  0  0  0  0  0  0
   20.3924  -19.6000    0.0000 C   0  0  0  0  0  0  0  0  0  0  0  0
   21.6049  -18.9000    0.0000 C   0  0  0  0  0  0  0  0  0  0  0  0
   21.6049  -17.5000    0.0000 C   0  0  0  0  0  0  0  0  0  0  0  0
   20.3924  -16.8000    0.0000 C   0  0  0  0  0  0  0  0  0  0  0  0
   20.3924  -15.4002    0.0000 N   0  0  0  0  0  0  0  0  0  0  0  0
   21.5103  -14.5878    0.0000 N   0  0  0  0  0  0  0  0  0  0  0  0
   21.0831  -13.2736    0.0000 C   0  0  0  0  0  0  0  0  0  0  0  0
   19.7012  -13.2737    0.0000 C   0  0  0  0  0  0  0  0  0  0  0  0
   19.2743  -14.5881    0.0000 N   0  0  0  0  0  0  0  0  0  0  0  0
   20.3924  -20.9998    0.0000 C   0  0  0  0  0  0  0  0  0  0  0  0
   17.9676  -16.8000    0.0000 C   0  0  0  0  0  0  0  0  0  0  0  0
   16.7721  -17.4904    0.0000 N   0  0  0  0  0  0  0  0  0  0  0  0
   15.5847  -16.8049    0.0000 C   0  0  0  0  0  0  0  0  0  0  0  0
   14.3723  -17.5050    0.0000 O   0  0  0  0  0  0  0  0  0  0  0  0
   14.3724  -18.9050    0.0000 C   0  0  0  0  0  0  0  0  0  0  0  0
   15.5597  -19.5904    0.0000 C   0  0  0  0  0  0  0  0  0  0  0  0
   16.7721  -18.8904    0.0000 C   0  0  0  0  0  0  0  0  0  0  0  0
   16.5747  -15.8150    0.0000 H   0  0  0  0  0  0  0  0  0  0  0  0
   14.5948  -15.8150    0.0000 C   0  0  0  0  0  0  0  0  0  0  0  0
   13.1948  -15.8150    0.0000 N   0  0  0  0  0  0  0  0  0  0  0  0
   12.3628  -14.6692    0.0000 C   0  0  0  0  0  0  0  0  0  0  0  0
   11.0159  -15.1064    0.0000 C   0  0  0  0  0  0  0  0  0  0  0  0
   11.0155  -16.5225    0.0000 C   0  0  0  0  0  0  0  0  0  0  0  0
   12.3622  -16.9604    0.0000 N   0  0  0  0  0  0  0  0  0  0  0  0
    9.8674  -17.3565    0.0000 C   0  0  0  0  0  0  0  0  0  0  0  0
    8.5920  -16.7885    0.0000 N   0  0  0  0  0  0  0  0  0  0  0  0
    7.4593  -17.6113    0.0000 C   0  0  0  0  0  0  0  0  0  0  0  0
    7.6055  -19.0037    0.0000 C   0  0  0  0  0  0  0  0  0  0  0  0
    8.8809  -19.5716    0.0000 C   0  0  0  0  0  0  0  0  0  0  0  0
   10.0136  -18.7488    0.0000 C   0  0  0  0  0  0  0  0  0  0  0  0
    6.5047  -19.8029    0.0000 F   0  0  0  0  0  0  0  0  0  0  0  0
   17.9675  -15.4002    0.0000 O   0  0  0  0  0  0  0  0  0  0  0  0
  1  2  2  0     0  0
  2  3  1  0     0  0
  3  4  2  0     0  0
  4  5  1  0     0  0
  5  6  2  0     0  0
  1  6  1  0     0  0
  6  7  1  0     0  0
  7  8  1  0     0  0
  8  9  2  0     0  0
  9 10  1  0     0  0
 10 11  2  0     0  0
  7 11  1  0     0  0
  1 12  1  0     0  0
 12 13  1  0     0  0
 12 14  2  0     0  0
 13 15  1  0     0  0
 15 16  1  0     0  0
 16 17  1  0     0  0
 17 18  1  0     0  0
 18 19  1  0     0  0
 13 19  1  0     0  0
 15 20  1  6     0  0
 15 21  1  1     0  0
 21 22  1  0     0  0
 22 23  1  0     0  0
 23 24  2  0     0  0
 24 25  1  0     0  0
 25 26  2  0     0  0
 22 26  1  0     0  0
 25 27  1  0     0  0
 27 28  2  0     0  0
 28 29  1  0     0  0
 29 30  2  0     0  0
 30 31  1  0     0  0
 31 32  2  0     0  0
 27 32  1  0     0  0
 30 33  1  0     0  0
  3 34  1  0     0  0
 36 37  2  0     0  0
 37 38  1  0     0  0
 38 39  2  0     0  0
 39 40  1  0     0  0
 40 41  2  0     0  0
 36 41  1  0     0  0
 41 42  1  0     0  0
 42 43  1  0     0  0
 43 44  2  0     0  0
 44 45  1  0     0  0
 45 46  2  0     0  0
 42 46  1  0     0  0
 36 48  1  0     0  0
 48 49  1  0     0  0
 48 69  2  0     0  0
 49 50  1  0     0  0
 50 51  1  0     0  0
 51 52  1  0     0  0
 52 53  1  0     0  0
 53 54  1  0     0  0
 49 54  1  0     0  0
 50 55  1  6     0  0
 50 56  1  1     0  0
 56 57  1  0     0  0
 57 58  1  0     0  0
 58 59  2  0     0  0
 59 60  1  0     0  0
 60 61  2  0     0  0
 57 61  1  0     0  0
 60 62  1  0     0  0
 62 63  2  0     0  0
 63 64  1  0     0  0
 64 65  2  0     0  0
 65 66  1  0     0  0
 66 67  2  0     0  0
 62 67  1  0     0  0
 65 68  1  0     0  0
 38 47  1  0     0  0
 70 71  2  0     0  0
 71 72  1  0     0  0
 72 73  2  0     0  0
 73 74  1  0     0  0
 74 75  2  0     0  0
 70 75  1  0     0  0
 75 76  1  0     0  0
 76 77  1  0     0  0
 77 78  2  0     0  0
 78 79  1  0     0  0
 79 80  2  0     0  0
 76 80  1  0     0  0
 70 82  1  0     0  0
 82 83  1  0     0  0
 82103  2  0     0  0
 83 84  1  0     0  0
 84 85  1  0     0  0
 85 86  1  0     0  0
 86 87  1  0     0  0
 87 88  1  0     0  0
 83 88  1  0     0  0
 84 89  1  6     0  0
 84 90  1  1     0  0
 90 91  1  0     0  0
 91 92  1  0     0  0
 92 93  2  0     0  0
 93 94  1  0     0  0
 94 95  2  0     0  0
 91 95  1  0     0  0
 94 96  1  0     0  0
 96 97  2  0     0  0
 97 98  1  0     0  0
 98 99  2  0     0  0
 99100  1  0     0  0
100101  2  0     0  0
 96101  1  0     0  0
 99102  1  0     0  0
 72 81  1  0     0  0
104105  2  0     0  0
105106  1  0     0  0
106107  2  0     0  0
107108  1  0     0  0
108109  2  0     0  0
104109  1  0     0  0
109110  1  0     0  0
110111  1  0     0  0
111112  2  0     0  0
112113  1  0     0  0
113114  2  0     0  0
110114  1  0     0  0
104116  1  0     0  0
116117  1  0     0  0
116137  2  0     0  0
117118  1  0     0  0
118119  1  0     0  0
119120  1  0     0  0
120121  1  0     0  0
121122  1  0     0  0
117122  1  0     0  0
118123  1  6     0  0
118124  1  1     0  0
124125  1  0     0  0
125126  1  0     0  0
126127  2  0     0  0
127128  1  0     0  0
128129  2  0     0  0
125129  1  0     0  0
128130  1  0     0  0
130131  2  0     0  0
131132  1  0     0  0
132133  2  0     0  0
133134  1  0     0  0
134135  2  0     0  0
130135  1  0     0  0
133136  1  0     0  0
106115  1  0     0  0
M  STY  1   1 MUL
M  SLB  1   1   1
M  SCN  1   1 HT 
M  SAL   1 15   1   2   3   4   5   6   7   8   9  10  11  12  13  14  15
M  SAL   1 15  16  17  18  19  20  21  22  23  24  25  26  27  28  29  30
M  SAL   1 15  31  32  33  34  36  37  38  39  40  41  42  43  44  45  46
M  SAL   1 15  47  48  49  50  51  52  53  54  55  56  57  58  59  60  61
M  SAL   1 15  62  63  64  65  66  67  68  69  70  71  72  73  74  75  76
M  SAL   1 15  77  78  79  80  81  82  83  84  85  86  87  88  89  90  91
M  SAL   1 15  92  93  94  95  96  97  98  99 100 101 102 103 104 105 106
M  SAL   1 15 107 108 109 110 111 112 113 114 115 116 117 118 119 120 121
M  SAL   1 15 122 123 124 125 126 127 128 129 130 131 132 133 134 135 136
M  SAL   1  1 137
M  SPA   1 15   1   2   3   4   5   6   7   8   9  10  11  34  12  13  15
M  SPA   1 15  16  17  18  19  20  21  22  23  24  25  26  27  28  29  30
M  SPA   1  4  31  32  33  14
M  SDI   1  4    5.3200  -21.9800    5.3200  -11.9700
M  SDI   1  4   22.5400  -11.9700   22.5400  -21.9800
M  SMT   1 4
M  END
