 
 
 
 29 32  0  0  1  0  0  0  0  0999 V2000
   15.2508  -15.5986    0.0000 C   0  0  0  0  0  0  0  0  0  0  0  0
   15.2508  -16.9277    0.0000 C   0  0  0  0  0  0  0  0  0  0  0  0
   16.4401  -17.6273    0.0000 C   0  0  0  0  0  0  0  0  0  0  0  0
   17.6993  -16.9277    0.0000 C   0  0  0  0  0  0  0  0  0  0  0  0
   17.6993  -15.5986    0.0000 C   0  0  0  0  0  0  0  0  0  0  0  0
   16.4401  -14.8990    0.0000 C   0  0  0  0  0  0  0  0  0  0  0  0
   20.0777  -16.9277    0.0000 C   0  0  0  0  0  0  0  0  0  0  0  0
   20.0777  -15.5986    0.0000 C   0  0  0  0  0  0  0  0  0  0  0  0
   18.8885  -14.8990    0.0000 C   0  0  0  0  0  0  0  0  0  0  0  0
   21.1970  -17.6273    0.0000 C   0  0  0  0  0  0  0  0  0  0  0  0
   22.4562  -16.9277    0.0000 C   0  0  0  0  0  0  0  0  0  0  0  0
   22.4562  -15.5986    0.0000 C   0  0  0  0  0  0  0  0  0  0  0  0
   21.1970  -14.8990    0.0000 C   0  0  0  0  0  0  0  0  0  0  0  0
   20.1477  -14.1995    0.0000 C   0  0  0  0  0  0  0  0  0  0  0  0
   17.6293  -14.1995    0.0000 C   0  0  0  0  0  0  0  0  0  0  0  0
   17.6593  -12.8082    0.0000 N   0  0  0  0  0  0  0  0  0  0  0  0
   20.1556  -12.7281    0.0000 C   0  0  0  0  0  0  0  0  0  0  0  0
   21.2670  -11.9609    0.0000 N   0  0  0  0  0  0  0  0  0  0  0  0
   22.5262  -12.6605    0.0000 C   0  0  0  0  0  0  0  0  0  0  0  0
   23.7860  -11.8950    0.0000 C   0  0  0  0  0  0  0  0  0  0  0  0
   23.7742  -10.6522    0.0000 O   0  0  0  0  0  0  0  0  0  0  0  0
   22.4562   -9.7923    0.0000 C   0  0  0  0  0  0  0  0  0  0  0  0
   21.2670  -10.5618    0.0000 C   0  0  0  0  0  0  0  0  0  0  0  0
   18.8185  -11.8910    0.0000 C   0  0  0  0  0  0  0  0  0  0  0  0
   18.3289  -10.5618    0.0000 C   0  0  0  0  0  0  0  0  0  0  0  0
   16.9297  -10.6318    0.0000 C   0  0  0  0  0  0  0  0  0  0  0  0
   16.5800  -11.9609    0.0000 C   0  0  0  0  0  0  0  0  0  0  0  0
   16.2394  -14.1979    0.0000 O   0  0  0  0  0  0  0  0  0  0  0  0
   21.5477  -14.1995    0.0000 C   0  0  0  0  0  0  0  0  0  0  0  0
  1  2  2  0     0  0
  2  3  1  0     0  0
  3  4  2  0     0  0
  4  5  1  0     0  0
  5  6  2  0     0  0
  1  6  1  0     0  0
  7  8  1  0     0  0
  8  9  1  0     0  0
  5  9  1  0     0  0
  7 10  2  0     0  0
 10 11  1  0     0  0
 11 12  2  0     0  0
 12 13  1  0     0  0
  8 13  2  0     0  0
  9 14  1  0     0  0
  9 15  1  0     0  0
 15 16  1  0     0  0
 14 17  1  0     0  0
 17 18  1  0     0  0
 18 19  1  0     0  0
 19 20  1  0     0  0
 20 21  1  0     0  0
 21 22  1  0     0  0
 22 23  1  0     0  0
 18 23  1  0     0  0
 16 24  1  0     0  0
 24 25  1  0     0  0
 25 26  1  0     0  0
 26 27  1  0     0  0
 16 27  1  0     0  0
 15 28  2  0     0  0
 14 29  1  6     0  0
M  END
