 
 
 
 38 41  0  0  1  0  0  0  0  0999 V2000
    9.4500  -17.0100    0.0000 C   0  0  0  0  0  0  0  0  0  0  0  0
    9.4500  -18.4100    0.0000 C   0  0  0  0  0  0  0  0  0  0  0  0
   10.6624  -19.1100    0.0000 C   0  0  0  0  0  0  0  0  0  0  0  0
   11.8749  -18.4100    0.0000 C   0  0  0  0  0  0  0  0  0  0  0  0
   11.8749  -17.0100    0.0000 C   0  0  0  0  0  0  0  0  0  0  0  0
   10.6624  -16.3100    0.0000 C   0  0  0  0  0  0  0  0  0  0  0  0
    8.2376  -19.1100    0.0000 F   0  0  0  0  0  0  0  0  0  0  0  0
   13.1060  -19.1210    0.0000 Cl  0  0  0  0  0  0  0  0  0  0  0  0
   13.1060  -16.2990    0.0000 C   0  0  0  0  0  0  0  0  0  0  0  0
   14.3112  -16.9947    0.0000 O   0  0  0  0  0  0  0  0  0  0  0  0
   15.4935  -16.3119    0.0000 C   0  0  0  0  0  0  0  0  0  0  0  0
   16.6875  -17.0012    0.0000 C   0  0  0  0  0  0  0  0  0  0  0  0
   17.8999  -16.3012    0.0000 C   0  0  0  0  0  0  0  0  0  0  0  0
   17.8999  -14.9012    0.0000 C   0  0  0  0  0  0  0  0  0  0  0  0
   16.7060  -14.2119    0.0000 C   0  0  0  0  0  0  0  0  0  0  0  0
   15.4935  -14.9119    0.0000 C   0  0  0  0  0  0  0  0  0  0  0  0
   16.7060  -12.8119    0.0000 C   0  0  0  0  0  0  0  0  0  0  0  0
   15.4935  -12.1119    0.0000 C   0  0  0  0  0  0  0  0  0  0  0  0
   14.2811  -12.8119    0.0000 C   0  0  0  0  0  0  0  0  0  0  0  0
   14.2811  -14.2119    0.0000 N   0  0  0  0  0  0  0  0  0  0  0  0
   13.0670  -12.1109    0.0000 C   0  0  0  0  0  0  0  0  0  0  0  0
   17.9371  -12.1009    0.0000 C   0  0  0  0  0  0  0  0  0  0  0  0
   19.2051  -12.6654    0.0000 N   0  0  0  0  0  0  0  0  0  0  0  0
   20.1338  -11.6339    0.0000 C   0  0  0  0  0  0  0  0  0  0  0  0
   19.4398  -10.4319    0.0000 N   0  0  0  0  0  0  0  0  0  0  0  0
   18.0822  -10.7205    0.0000 N   0  0  0  0  0  0  0  0  0  0  0  0
   17.0244   -9.7679    0.0000 C   0  0  0  0  0  0  0  0  0  0  0  0
   10.6624  -14.9102    0.0000 C   0  0  0  0  0  0  0  0  0  0  0  0
    9.4332  -14.2003    0.0000 N   0  0  0  0  0  0  0  0  0  0  0  0
    8.2292  -14.8954    0.0000 C   0  0  0  0  0  0  0  0  0  0  0  0
    7.0463  -14.2123    0.0000 C   0  0  0  0  0  0  0  0  0  0  0  0
    8.2289  -16.3097    0.0000 O   0  0  0  0  0  0  0  0  0  0  0  0
    5.8527  -14.9015    0.0000 O   0  0  0  0  0  0  0  0  0  0  0  0
    4.6645  -14.2154    0.0000 C   0  0  0  0  0  0  0  0  0  0  0  0
    3.4736  -14.9030    0.0000 F   0  0  0  0  0  0  0  0  0  0  0  0
    4.6644  -12.8102    0.0000 F   0  0  0  0  0  0  0  0  0  0  0  0
   10.6624  -13.5102    0.0000 H   1  0  0  0  0  0  0  0  0  0  0  0
   12.0624  -14.9102    0.0000 C   0  0  0  0  0  0  0  0  0  0  0  0
  1  2  2  0     0  0
  2  3  1  0     0  0
  3  4  2  0     0  0
  4  5  1  0     0  0
  5  6  2  0     0  0
  1  6  1  0     0  0
  2  7  1  0     0  0
  4  8  1  0     0  0
  5  9  1  0     0  0
  9 10  1  0     0  0
 10 11  1  0     0  0
 11 12  2  0     0  0
 12 13  1  0     0  0
 13 14  2  0     0  0
 14 15  1  0     0  0
 15 16  2  0     0  0
 11 16  1  0     0  0
 15 17  1  0     0  0
 17 18  2  0     0  0
 18 19  1  0     0  0
 19 20  2  0     0  0
 16 20  1  0     0  0
 19 21  1  0     0  0
 17 22  1  0     0  0
 22 23  2  0     0  0
 23 24  1  0     0  0
 24 25  2  0     0  0
 25 26  1  0     0  0
 22 26  1  0     0  0
 26 27  1  0     0  0
  6 28  1  0     0  0
 28 29  1  0     0  0
 29 30  1  0     0  0
 30 31  1  0     0  0
 30 32  2  0     0  0
 31 33  1  0     0  0
 33 34  1  0     0  0
 34 35  1  0     0  0
 34 36  1  0     0  0
 28 37  1  6     0  0
 28 38  1  1     0  0
M  ISO  1  37   2
M  END
