 
 
 
 19 20  0  0  1  0  0  0  0  0999 V2000
   16.0069  -17.1260    0.0000 N   0  0  0  0  0  0  0  0  0  0  0  0
   17.1952  -17.8251    0.0000 C   0  0  0  0  0  0  0  0  0  0  0  0
   18.3837  -17.1260    0.0000 C   0  0  0  0  0  0  0  0  0  0  0  0
   18.3837  -15.7280    0.0000 C   0  0  0  0  0  0  0  0  0  0  0  0
   17.1952  -15.0290    0.0000 C   0  0  0  0  0  0  0  0  0  0  0  0
   16.0069  -15.7979    0.0000 C   0  0  0  0  0  0  0  0  0  0  0  0
   14.6787  -17.8251    0.0000 C   0  0  0  0  0  0  0  0  0  0  0  0
   19.7818  -16.5669    0.0000 O   0  0  0  0  0  0  0  0  0  0  0  0
   20.4807  -17.7552    0.0000 C   0  0  0  0  0  0  0  0  0  0  0  0
   21.8789  -17.7552    0.0000 C   0  0  0  0  0  0  0  0  0  0  0  0
   22.5779  -16.5669    0.0000 C   0  0  0  0  0  0  0  0  0  0  0  0
   19.7818  -18.9436    0.0000 O   0  0  0  0  0  0  0  0  0  0  0  0
   19.5720  -15.0290    0.0000 C   0  0  0  0  0  0  0  0  0  0  0  0
   19.5720  -13.6308    0.0000 C   0  0  0  0  0  0  0  0  0  0  0  0
   20.7604  -15.7280    0.0000 C   0  0  0  0  0  0  0  0  0  0  0  0
   21.9487  -14.9591    0.0000 C   0  0  0  0  0  0  0  0  0  0  0  0
   21.9487  -13.6308    0.0000 C   0  0  0  0  0  0  0  0  0  0  0  0
   20.7604  -12.9318    0.0000 C   0  0  0  0  0  0  0  0  0  0  0  0
   17.1952  -13.6290    0.0000 C   0  0  0  0  0  0  0  0  0  0  0  0
  1  2  1  0     0  0
  2  3  1  0     0  0
  3  4  1  0     0  0
  4  5  1  0     0  0
  5  6  1  0     0  0
  1  6  1  0     0  0
  1  7  1  0     0  0
  4  8  1  6     0  0
  8  9  1  0     0  0
  9 10  1  0     0  0
 10 11  1  0     0  0
  9 12  2  0     0  0
 13 14  2  0     0  0
 13 15  1  0     0  0
 15 16  2  0     0  0
 16 17  1  0     0  0
 17 18  2  0     0  0
 14 18  1  0     0  0
  4 13  1  1     0  0
  5 19  1  1     0  0
M  END
