 
 
 
 21 24  0  0  1  0  0  0  0  0999 V2000
   17.9200  -16.5900    0.0000 C   0  0  1  0  0  0  0  0  0  0  0  0
   17.9200  -15.2600    0.0000 C   0  0  0  0  0  0  0  0  0  0  0  0
   19.0400  -17.2900    0.0000 C   0  0  2  0  0  0  0  0  0  0  0  0
   16.7300  -17.2900    0.0000 C   0  0  0  0  0  0  0  0  0  0  0  0
   19.0400  -14.6300    0.0000 C   0  0  0  0  0  0  0  0  0  0  0  0
   16.7300  -14.6300    0.0000 C   0  0  0  0  0  0  0  0  0  0  0  0
   20.2300  -16.5900    0.0000 C   0  0  1  0  0  0  0  0  0  0  0  0
   19.0400  -18.6200    0.0000 C   0  0  0  0  0  0  0  0  0  0  0  0
   16.7300  -18.6200    0.0000 C   0  0  0  0  0  0  0  0  0  0  0  0
   20.2300  -15.2600    0.0000 C   0  0  0  0  0  0  0  0  0  0  0  0
   19.0400  -13.3000    0.0000 C   0  0  0  0  0  0  0  0  0  0  0  0
   16.7300  -13.3000    0.0000 C   0  0  0  0  0  0  0  0  0  0  0  0
   17.9200  -19.3200    0.0000 C   0  0  0  0  0  0  0  0  0  0  0  0
   17.9200  -12.6000    0.0000 C   0  0  0  0  0  0  0  0  0  0  0  0
   15.6100  -12.6000    0.0000 O   0  0  0  0  0  0  0  0  0  0  0  0
   14.4200  -13.2300    0.0000 C   0  0  0  0  0  0  0  0  0  0  0  0
   18.8300  -15.6800    0.0000 C   0  0  0  0  0  0  0  0  0  0  0  0
   21.3500  -15.6800    0.0000 C   0  0  0  0  0  0  0  0  0  0  0  0
   21.3500  -17.2900    0.0000 N   0  0  3  0  0  0  0  0  0  0  0  0
   22.8200  -17.2900    0.0000 C   0  0  0  0  0  0  0  0  0  0  0  0
   20.2524  -17.9900    0.0000 H   0  0  0  0  0  0  0  0  0  0  0  0
  1  2  1  0     0  0
  1  3  1  0     0  0
  1  4  1  0     0  0
  2  5  2  0     0  0
  2  6  1  0     0  0
  3  7  1  0     0  0
  3  8  1  0     0  0
  4  9  1  0     0  0
  5 10  1  0     0  0
  5 11  1  0     0  0
  6 12  2  0     0  0
  8 13  1  0     0  0
 11 14  2  0     0  0
 12 15  1  0     0  0
 15 16  1  0     0  0
  7 10  1  0     0  0
  9 13  1  0     0  0
 12 14  1  0     0  0
 17 18  1  0     0  0
 19 20  1  0     0  0
 18 19  1  0     0  0
  1 17  1  1     0  0
  7 19  1  1     0  0
  3 21  1  1     0  0
M  END
