 
 
 
 27 29  0  0  1  0  0  0  0  0999 V2000
    6.4400  -18.1300    0.0000 C   0  0  0  0  0  0  0  0  0  0  0  0
    6.4400  -19.5300    0.0000 C   0  0  0  0  0  0  0  0  0  0  0  0
    7.6524  -20.2300    0.0000 C   0  0  0  0  0  0  0  0  0  0  0  0
    8.8649  -19.5300    0.0000 C   0  0  0  0  0  0  0  0  0  0  0  0
    8.8649  -18.1300    0.0000 C   0  0  0  0  0  0  0  0  0  0  0  0
    7.6524  -17.4300    0.0000 C   0  0  0  0  0  0  0  0  0  0  0  0
   10.0960  -17.4190    0.0000 O   0  0  0  0  0  0  0  0  0  0  0  0
   11.3012  -18.1147    0.0000 C   0  0  0  0  0  0  0  0  0  0  0  0
   11.3016  -19.5296    0.0000 C   0  0  0  0  0  0  0  0  0  0  0  0
   12.5142  -20.2293    0.0000 C   0  0  0  0  0  0  0  0  0  0  0  0
   13.7265  -19.5289    0.0000 C   0  0  0  0  0  0  0  0  0  0  0  0
   13.7260  -18.1139    0.0000 C   0  0  0  0  0  0  0  0  0  0  0  0
   12.5134  -17.4143    0.0000 C   0  0  0  0  0  0  0  0  0  0  0  0
    5.2276  -20.2300    0.0000 C   0  0  0  0  0  0  0  0  0  0  0  0
   15.0723  -19.9658    0.0000 N   0  0  0  0  0  0  0  0  0  0  0  0
   15.9037  -18.8208    0.0000 C   0  0  0  0  0  0  0  0  0  0  0  0
   15.0716  -17.6763    0.0000 N   0  0  0  0  0  0  0  0  0  0  0  0
   17.2900  -18.8204    0.0000 C   0  0  0  0  0  0  0  0  0  0  0  0
   15.4916  -16.3815    0.0000 C   0  0  0  0  0  0  0  0  0  0  0  0
   16.8405  -16.0940    0.0000 C   0  0  0  0  0  0  0  0  0  0  0  0
   17.9856  -17.6150    0.0000 N   0  0  0  0  0  0  0  0  0  0  0  0
   19.3856  -17.6150    0.0000 C   0  0  0  0  0  0  0  0  0  0  0  0
   20.0976  -18.8480    0.0000 C   0  0  0  0  0  0  0  0  0  0  0  0
   20.0759  -16.4196    0.0000 C   0  0  0  0  0  0  0  0  0  0  0  0
   20.7856  -17.6150    0.0000 H   0  0  0  0  0  0  0  0  0  0  0  0
   21.4897  -16.4194    0.0000 N   0  0  0  0  0  0  0  0  0  0  0  0
   19.3925  -15.2361    0.0000 O   0  0  0  0  0  0  0  0  0  0  0  0
  1  2  2  0     0  0
  2  3  1  0     0  0
  3  4  2  0     0  0
  4  5  1  0     0  0
  5  6  2  0     0  0
  1  6  1  0     0  0
  5  7  1  0     0  0
  7  8  1  0     0  0
  8  9  2  0     0  0
  9 10  1  0     0  0
 10 11  2  0     0  0
 11 12  1  0     0  0
 12 13  2  0     0  0
  8 13  1  0     0  0
  2 14  1  0     0  0
 11 15  1  0     0  0
 15 16  2  0     0  0
 16 17  1  0     0  0
 12 17  1  0     0  0
 16 18  1  0     0  0
 17 19  1  0     0  0
 19 20  1  0     0  0
 18 21  1  0     0  0
 21 22  1  0     0  0
 22 23  1  6     0  0
 22 24  1  0     0  0
 22 25  1  1     0  0
 24 26  1  0     0  0
 24 27  2  0     0  0
M  END
