 
 
 
 23 24  0  0  0  0  0  0  0  0999 V2000
    5.9051  -27.9496    0.0000 C   0  0  0  0  0  0  0  0  0  0  0  0
    5.9051  -29.3456    0.0000 C   0  0  0  0  0  0  0  0  0  0  0  0
    7.0219  -30.0436    0.0000 C   0  0  0  0  0  0  0  0  0  0  0  0
    8.2084  -29.3456    0.0000 C   0  0  0  0  0  0  0  0  0  0  0  0
    8.2084  -27.9496    0.0000 C   0  0  0  0  0  0  0  0  0  0  0  0
    7.0219  -27.3214    0.0000 C   0  0  0  0  0  0  0  0  0  0  0  0
   10.5117  -29.3456    0.0000 C   0  0  0  0  0  0  0  0  0  0  0  0
   10.5117  -27.9496    0.0000 C   0  0  0  0  0  0  0  0  0  0  0  0
    9.3252  -27.3214    0.0000 C   0  0  0  0  0  0  0  0  0  0  0  0
   11.6285  -30.0436    0.0000 C   0  0  0  0  0  0  0  0  0  0  0  0
   12.8151  -29.3456    0.0000 C   0  0  0  0  0  0  0  0  0  0  0  0
   12.8151  -27.9496    0.0000 C   0  0  0  0  0  0  0  0  0  0  0  0
   11.6285  -27.3214    0.0000 C   0  0  0  0  0  0  0  0  0  0  0  0
    7.3008  -26.2045    0.0000 C   0  0  0  0  0  0  0  0  0  0  0  0
    7.3008  -24.8085    0.0000 O   0  0  0  0  0  0  0  0  0  0  0  0
    6.1841  -26.9025    0.0000 C   0  0  0  0  0  0  0  0  0  0  0  0
    5.0673  -26.2045    0.0000 C   0  0  0  0  0  0  0  0  0  0  0  0
    9.3252  -25.9214    0.0000 C   0  0  0  0  0  0  0  0  0  0  0  0
   10.5353  -25.2227    0.0000 C   0  0  0  0  0  0  0  0  0  0  0  0
    8.0920  -25.2097    0.0000 C   0  0  0  0  0  0  0  0  0  0  0  0
   10.5353  -23.8227    0.0000 N   0  0  0  0  0  0  0  0  0  0  0  0
   11.7836  -23.1021    0.0000 C   0  0  0  0  0  0  0  0  0  0  0  0
    9.3397  -23.1319    0.0000 C   0  0  0  0  0  0  0  0  0  0  0  0
  1  2  2  0     0  0
  2  3  1  0     0  0
  3  4  2  0     0  0
  4  5  1  0     0  0
  5  6  2  0     0  0
  1  6  1  0     0  0
  7  8  1  0     0  0
  8  9  1  0     0  0
  5  9  1  0     0  0
  7 10  2  0     0  0
 10 11  1  0     0  0
 11 12  2  0     0  0
 12 13  1  0     0  0
  8 13  2  0     0  0
  9 14  1  0     0  0
 14 15  2  0     0  0
 14 16  1  0     0  0
 16 17  1  0     0  0
  9 18  1  0     0  0
 18 19  1  0     0  0
 18 20  1  0     0  0
 19 21  1  0     0  0
 21 22  1  0     0  0
 21 23  1  0     0  0
M  END
