 
 
 
 26 28  0  0  0  0  0  0  0  0999 V2000
   15.4553  -17.2736    0.0000 C   0  0  0  0  0  0  0  0  0  0  0  0
   15.4553  -18.6723    0.0000 C   0  0  0  0  0  0  0  0  0  0  0  0
   16.6442  -19.3716    0.0000 C   0  0  0  0  0  0  0  0  0  0  0  0
   17.8331  -18.6723    0.0000 C   0  0  0  0  0  0  0  0  0  0  0  0
   17.8331  -17.2736    0.0000 C   0  0  0  0  0  0  0  0  0  0  0  0
   16.6442  -16.6442    0.0000 C   0  0  0  0  0  0  0  0  0  0  0  0
   20.1409  -18.6723    0.0000 C   0  0  0  0  0  0  0  0  0  0  0  0
   20.1409  -17.2736    0.0000 C   0  0  0  0  0  0  0  0  0  0  0  0
   18.9520  -16.6442    0.0000 C   0  0  0  0  0  0  0  0  0  0  0  0
   21.3298  -19.3716    0.0000 C   0  0  0  0  0  0  0  0  0  0  0  0
   22.5186  -18.6723    0.0000 C   0  0  0  0  0  0  0  0  0  0  0  0
   22.5186  -17.2736    0.0000 C   0  0  0  0  0  0  0  0  0  0  0  0
   21.3298  -16.6442    0.0000 C   0  0  0  0  0  0  0  0  0  0  0  0
   18.9520  -15.2455    0.0000 C   0  0  0  0  0  0  0  0  0  0  0  0
   16.9939  -15.5253    0.0000 C   0  0  0  0  0  0  0  0  0  0  0  0
   16.9939  -14.1965    0.0000 O   0  0  0  0  0  0  0  0  0  0  0  0
   15.8050  -16.2246    0.0000 C   0  0  0  0  0  0  0  0  0  0  0  0
   14.6861  -15.5253    0.0000 C   0  0  0  0  0  0  0  0  0  0  0  0
   20.1645  -14.5455    0.0000 C   0  0  0  0  0  0  0  0  0  0  0  0
   20.1645  -13.1455    0.0000 N   0  0  0  0  0  0  0  0  0  0  0  0
   21.3769  -15.2455    0.0000 C   0  0  0  0  0  0  0  0  0  0  0  0
   21.3673  -12.4512    0.0000 C   0  0  0  0  0  0  0  0  0  0  0  0
   21.3674  -11.0512    0.0000 C   0  0  0  0  0  0  0  0  0  0  0  0
   20.1550  -10.3511    0.0000 C   0  0  0  0  0  0  0  0  0  0  0  0
   18.9522  -11.0455    0.0000 C   0  0  0  0  0  0  0  0  0  0  0  0
   18.9521  -12.4455    0.0000 C   0  0  0  0  0  0  0  0  0  0  0  0
  1  2  2  0     0  0
  2  3  1  0     0  0
  3  4  2  0     0  0
  4  5  1  0     0  0
  5  6  2  0     0  0
  1  6  1  0     0  0
  7  8  1  0     0  0
  8  9  1  0     0  0
  5  9  1  0     0  0
  7 10  2  0     0  0
 10 11  1  0     0  0
 11 12  2  0     0  0
 12 13  1  0     0  0
  8 13  2  0     0  0
  9 14  1  0     0  0
  9 15  1  0     0  0
 15 16  2  0     0  0
 15 17  1  0     0  0
 17 18  1  0     0  0
 14 19  1  0     0  0
 19 20  1  0     0  0
 19 21  1  0     0  0
 20 22  1  0     0  0
 22 23  1  0     0  0
 23 24  1  0     0  0
 24 25  1  0     0  0
 25 26  1  0     0  0
 20 26  1  0     0  0
M  END
