 
 
 
 39 38  0  0  0  0  0  0  0  0999 V2000
   29.4700  -14.4900    0.0000 C   0  0  0  0  0  0  0  0  0  0  0  0
   28.2800  -15.1900    0.0000 O   0  0  0  0  0  0  0  0  0  0  0  0
   27.1600  -14.4900    0.0000 C   0  0  0  0  0  0  0  0  0  0  0  0
   26.1100  -15.1900    0.0000 C   0  0  0  0  0  0  0  0  0  0  0  0
   24.9900  -14.4900    0.0000 C   0  0  0  0  0  0  0  0  0  0  0  0
   23.8000  -15.1900    0.0000 O   0  0  0  0  0  0  0  0  0  0  0  0
   22.6100  -14.4900    0.0000 C   0  0  0  0  0  0  0  0  0  0  0  0
   21.3500  -15.1900    0.0000 C   0  0  0  0  0  0  0  0  0  0  0  0
   26.1100  -16.5900    0.0000 O   0  0  0  0  0  0  0  0  0  0  0  0
   29.4700  -13.2300    0.0000 O   0  0  0  0  0  0  0  0  0  0  0  0
   22.6100  -13.2300    0.0000 O   0  0  0  0  0  0  0  0  0  0  0  0
   20.2300  -14.4900    0.0000 C   0  0  0  0  0  0  0  0  0  0  0  0
   18.7600  -15.1900    0.0000 C   0  0  0  0  0  0  0  0  0  0  0  0
   27.1600  -17.3600    0.0000 C   0  0  0  0  0  0  0  0  0  0  0  0
   27.1600  -18.6900    0.0000 O   0  0  0  0  0  0  0  0  0  0  0  0
   28.3500  -16.5900    0.0000 C   0  0  0  0  0  0  0  0  0  0  0  0
   29.6100  -17.3600    0.0000 C   0  0  0  0  0  0  0  0  0  0  0  0
   30.8000  -16.5900    0.0000 C   0  0  0  0  0  0  0  0  0  0  0  0
   31.9900  -17.3600    0.0000 C   0  0  0  0  0  0  0  0  0  0  0  0
   33.2500  -16.5900    0.0000 C   0  0  0  0  0  0  0  0  0  0  0  0
   34.5100  -17.3600    0.0000 C   0  0  0  0  0  0  0  0  0  0  0  0
   35.7000  -16.5900    0.0000 C   0  0  0  0  0  0  0  0  0  0  0  0
   36.9600  -17.3600    0.0000 C   0  0  0  0  0  0  0  0  0  0  0  0
   38.1500  -16.5900    0.0000 C   0  0  0  0  0  0  0  0  0  0  0  0
   30.6600  -15.1900    0.0000 C   0  0  0  0  0  0  0  0  0  0  0  0
   31.9200  -14.4900    0.0000 C   0  0  0  0  0  0  0  0  0  0  0  0
   33.1100  -15.1900    0.0000 C   0  0  0  0  0  0  0  0  0  0  0  0
   34.3700  -14.4900    0.0000 C   0  0  0  0  0  0  0  0  0  0  0  0
   35.6300  -15.1900    0.0000 C   0  0  0  0  0  0  0  0  0  0  0  0
   36.8200  -14.4900    0.0000 C   0  0  0  0  0  0  0  0  0  0  0  0
   38.0100  -15.1900    0.0000 C   0  0  0  0  0  0  0  0  0  0  0  0
   39.2700  -14.4900    0.0000 C   0  0  0  0  0  0  0  0  0  0  0  0
   40.4600  -15.1900    0.0000 C   0  0  0  0  0  0  0  0  0  0  0  0
   17.5700  -14.4900    0.0000 C   0  0  0  0  0  0  0  0  0  0  0  0
   16.3100  -15.1900    0.0000 C   0  0  0  0  0  0  0  0  0  0  0  0
   15.1200  -14.4900    0.0000 C   0  0  0  0  0  0  0  0  0  0  0  0
   13.8600  -15.1900    0.0000 C   0  0  0  0  0  0  0  0  0  0  0  0
   12.6000  -14.4900    0.0000 C   0  0  0  0  0  0  0  0  0  0  0  0
   11.4100  -15.1900    0.0000 C   0  0  0  0  0  0  0  0  0  0  0  0
  1  2  1  0     0  0
  2  3  1  0     0  0
  3  4  1  0     0  0
  4  5  1  0     0  0
  5  6  1  0     0  0
  6  7  1  0     0  0
  4  9  1  0     0  0
  1 10  2  0     0  0
  7 11  2  0     0  0
  9 14  1  0     0  0
 14 15  2  0     0  0
  7  8  1  0     0  0
  8 12  1  0     0  0
 12 13  1  0     0  0
 14 16  1  0     0  0
 16 17  1  0     0  0
 17 18  1  0     0  0
 18 19  1  0     0  0
 19 20  1  0     0  0
 20 21  1  0     0  0
 21 22  1  0     0  0
 22 23  1  0     0  0
 23 24  1  0     0  0
  1 25  1  0     0  0
 25 26  1  0     0  0
 26 27  1  0     0  0
 27 28  1  0     0  0
 28 29  1  0     0  0
 29 30  1  0     0  0
 30 31  1  0     0  0
 31 32  1  0     0  0
 32 33  1  0     0  0
 13 34  1  0     0  0
 34 35  1  0     0  0
 35 36  1  0     0  0
 36 37  1  0     0  0
 37 38  1  0     0  0
 38 39  1  0     0  0
M  END
