 
     RDKit          2D

 36 38  0  0  1  0  0  0  0  0999 V2000
   14.5600  -16.0300    0.0000 C   0  0  0  0  0  0  0  0  0  0  0  0
   15.3300  -17.2900    0.0000 C   0  0  0  0  0  0  0  0  0  0  0  0
   16.6600  -16.8000    0.0000 C   0  0  0  0  0  0  0  0  0  0  0  0
   16.6600  -15.4000    0.0000 C   0  0  0  0  0  0  0  0  0  0  0  0
   15.3300  -14.9100    0.0000 C   0  0  0  0  0  0  0  0  0  0  0  0
   17.8500  -17.5700    0.0000 C   0  0  0  0  0  0  0  0  0  0  0  0
   19.0400  -16.8000    0.0000 C   0  0  0  0  0  0  0  0  0  0  0  0
   20.2300  -17.5700    0.0000 C   0  0  0  0  0  0  0  0  0  0  0  0
   21.3500  -16.8000    0.0000 C   0  0  0  0  0  0  0  0  0  0  0  0
   20.2300  -18.9700    0.0000 O   0  0  0  0  0  0  0  0  0  0  0  0
   22.6100  -17.5700    0.0000 C   0  0  0  0  0  0  0  0  0  0  0  0
   23.8000  -16.8000    0.0000 C   0  0  0  0  0  0  0  0  0  0  0  0
   24.9900  -17.5700    0.0000 C   0  0  0  0  0  0  0  0  0  0  0  0
   26.1800  -16.8000    0.0000 C   0  0  0  0  0  0  0  0  0  0  0  0
   14.8400  -18.6200    0.0000 O   0  0  0  0  0  0  0  0  0  0  0  0
   17.7100  -14.4900    0.0000 C   0  0  0  0  0  0  0  0  0  0  0  0
   17.5000  -13.0900    0.0000 C   0  0  0  0  0  0  0  0  0  0  0  0
   16.1700  -12.6000    0.0000 C   0  0  0  0  0  0  0  0  0  0  0  0
   15.1200  -13.5100    0.0000 C   0  0  0  0  0  0  0  0  0  0  0  0
   18.5500  -12.2500    0.0000 C   0  0  0  0  0  0  0  0  0  0  0  0
   18.3400  -10.8500    0.0000 C   0  0  0  0  0  0  0  0  0  0  0  0
   17.0100  -10.3600    0.0000 C   0  0  0  0  0  0  0  0  0  0  0  0
   15.9600  -11.2700    0.0000 C   0  0  0  0  0  0  0  0  0  0  0  0
   14.7700  -10.5700    0.0000 O   0  0  0  0  0  0  0  0  0  0  0  0
   13.5800  -11.2700    0.0000 C   0  0  0  0  0  0  0  0  0  0  0  0
   12.3900  -10.5700    0.0000 C   0  0  0  0  0  0  0  0  0  0  0  0
   11.1300  -11.2700    0.0000 O   0  0  0  0  0  0  0  0  0  0  0  0
   12.3900   -9.1700    0.0000 O   0  0  0  0  0  0  0  0  0  0  0  0
   19.0400  -19.6700    0.0000 P   0  0  0  0  0  0  0  0  0  0  0  0
   13.4400  -18.8300    0.0000 P   0  0  0  0  0  0  0  0  0  0  0  0
   13.7900  -20.2300    0.0000 O   0  0  0  0  0  0  0  0  0  0  0  0
   13.0900  -17.5000    0.0000 O   0  0  0  0  0  0  0  0  0  0  0  0
   12.1100  -19.2500    0.0000 O   0  0  0  0  0  0  0  0  0  0  0  0
   17.7800  -20.3700    0.0000 O   0  0  0  0  0  0  0  0  0  0  0  0
   19.7400  -20.8600    0.0000 O   0  0  0  0  0  0  0  0  0  0  0  0
   18.3400  -18.4800    0.0000 O   0  0  0  0  0  0  0  0  0  0  0  0
  1  2  1  0
  2  3  1  0
  3  4  1  0
  4  5  1  0
  5  1  1  6
  3  6  1  1
  6  7  1  0
  8  7  1  6
  8  9  1  0
  8 10  1  0
  9 11  1  0
 11 12  1  0
 12 13  1  0
 13 14  1  0
  2 15  1  6
  4 16  1  6
 16 17  1  0
 17 18  2  0
 18 19  1  0
  5 19  1  0
 17 20  1  0
 20 21  2  0
 21 22  1  0
 22 23  2  0
 18 23  1  0
 24 23  1  0
 24 25  1  0
 25 26  1  0
 26 27  1  0
 26 28  2  0
 10 29  1  0
 15 30  1  0
 30 31  1  0
 30 32  1  0
 30 33  2  0
 29 34  2  0
 29 35  1  0
 29 36  1  0
M  END
