 
 
 
 23 24  0  0  1  0  0  0  0  0999 V2000
   15.4619  -17.3509    0.0000 C   0  0  0  0  0  0  0  0  0  0  0  0
   15.4619  -18.6802    0.0000 C   0  0  0  0  0  0  0  0  0  0  0  0
   16.6513  -19.3798    0.0000 C   0  0  0  0  0  0  0  0  0  0  0  0
   17.8406  -18.6802    0.0000 C   0  0  0  0  0  0  0  0  0  0  0  0
   17.8406  -17.3509    0.0000 C   0  0  0  0  0  0  0  0  0  0  0  0
   16.6513  -16.6513    0.0000 C   0  0  0  0  0  0  0  0  0  0  0  0
   20.2194  -18.6802    0.0000 C   0  0  0  0  0  0  0  0  0  0  0  0
   20.2194  -17.3509    0.0000 C   0  0  0  0  0  0  0  0  0  0  0  0
   19.0300  -16.6513    0.0000 C   0  0  0  0  0  0  0  0  0  0  0  0
   21.3388  -19.3798    0.0000 C   0  0  0  0  0  0  0  0  0  0  0  0
   22.5281  -18.6802    0.0000 C   0  0  0  0  0  0  0  0  0  0  0  0
   22.5281  -17.3509    0.0000 C   0  0  0  0  0  0  0  0  0  0  0  0
   21.3388  -16.6513    0.0000 C   0  0  0  0  0  0  0  0  0  0  0  0
   19.0300  -15.2520    0.0000 C   0  0  0  0  0  0  0  0  0  0  0  0
   20.2194  -14.6223    0.0000 C   0  0  0  0  0  0  0  0  0  0  0  0
   17.0011  -15.5318    0.0000 C   0  0  0  0  0  0  0  0  0  0  0  0
   21.3388  -15.2520    0.0000 C   0  0  0  0  0  0  0  0  0  0  0  0
   15.8117  -16.2314    0.0000 C   0  0  0  0  0  0  0  0  0  0  0  0
   14.6922  -15.5318    0.0000 C   0  0  0  0  0  0  0  0  0  0  0  0
   20.2194  -13.2230    0.0000 N   0  0  0  0  0  0  0  0  0  0  0  0
   21.3388  -12.5234    0.0000 C   0  0  0  0  0  0  0  0  0  0  0  0
   18.9600  -12.5234    0.0000 C   0  0  0  0  0  0  0  0  0  0  0  0
   17.0011  -14.1347    0.0000 O   0  0  0  0  0  0  0  0  0  0  0  0
  1  2  2  0     0  0
  2  3  1  0     0  0
  3  4  2  0     0  0
  4  5  1  0     0  0
  5  6  2  0     0  0
  1  6  1  0     0  0
  7  8  1  0     0  0
  8  9  1  0     0  0
  5  9  1  0     0  0
  7 10  2  0     0  0
 10 11  1  0     0  0
 11 12  2  0     0  0
 12 13  1  0     0  0
  8 13  2  0     0  0
  9 14  1  0     0  0
 14 15  1  0     0  0
  9 16  1  0     0  0
 15 17  1  0     0  0
 16 18  1  0     0  0
 18 19  1  0     0  0
 20 21  1  0     0  0
 20 22  1  0     0  0
 15 20  1  6     0  0
 16 23  1  1     0  0
M  END
