 
 
 
 62 63  0  0  0  0  0  0  0  0999 V2000
    7.8806  -19.0387    0.0000 C   0  0  0  0  0  0  0  0  0  0  0  0
    7.8806  -20.4334    0.0000 C   0  0  0  0  0  0  0  0  0  0  0  0
    9.1359  -21.2005    0.0000 C   0  0  0  0  0  0  0  0  0  0  0  0
   10.3214  -20.4334    0.0000 C   0  0  0  0  0  0  0  0  0  0  0  0
   10.3214  -19.0387    0.0000 C   0  0  0  0  0  0  0  0  0  0  0  0
    9.1359  -18.3413    0.0000 C   0  0  0  0  0  0  0  0  0  0  0  0
   11.5070  -21.2005    0.0000 C   0  0  0  0  0  0  0  0  0  0  0  0
   12.7623  -20.4334    0.0000 C   0  0  0  0  0  0  0  0  0  0  0  0
   12.7623  -19.0387    0.0000 C   0  0  0  0  0  0  0  0  0  0  0  0
   11.5070  -18.3413    0.0000 C   0  0  0  0  0  0  0  0  0  0  0  0
   13.9478  -18.3413    0.0000 N   0  0  0  0  0  0  0  0  0  0  0  0
   11.5070  -16.9465    0.0000 O   0  0  0  0  0  0  0  0  0  0  0  0
   13.9478  -21.1308    0.0000 S   0  0  0  0  0  0  0  0  0  0  0  0
   15.1334  -21.8282    0.0000 O   0  5  0  0  0  0  0  0  0  0  0  0
   13.2504  -22.3861    0.0000 O   0  0  0  0  0  0  0  0  0  0  0  0
   14.6452  -19.9453    0.0000 O   0  0  0  0  0  0  0  0  0  0  0  0
    9.1359  -16.9465    0.0000 N   0  0  0  0  0  0  0  0  0  0  0  0
    6.6951  -21.2005    0.0000 S   0  0  0  0  0  0  0  0  0  0  0  0
    5.5095  -21.8979    0.0000 O   0  5  0  0  0  0  0  0  0  0  0  0
    5.8582  -20.0150    0.0000 O   0  0  0  0  0  0  0  0  0  0  0  0
    7.5319  -22.3163    0.0000 O   0  0  0  0  0  0  0  0  0  0  0  0
   15.1334  -19.0387    0.0000 N   0  0  0  0  0  0  0  0  0  0  0  0
   16.3189  -18.3413    0.0000 C   0  0  0  0  0  0  0  0  0  0  0  0
   17.5044  -19.0387    0.0000 C   0  0  0  0  0  0  0  0  0  0  0  0
   18.6900  -18.3413    0.0000 C   0  0  0  0  0  0  0  0  0  0  0  0
   18.6900  -16.9465    0.0000 C   0  0  0  0  0  0  0  0  0  0  0  0
   17.5044  -16.2492    0.0000 C   0  0  0  0  0  0  0  0  0  0  0  0
   16.3189  -16.9465    0.0000 C   0  0  0  0  0  0  0  0  0  0  0  0
   19.8755  -16.2492    0.0000 C   0  0  0  0  0  0  0  0  0  0  0  0
   21.1308  -16.9465    0.0000 C   0  0  0  0  0  0  0  0  0  0  0  0
   22.3163  -16.1794    0.0000 C   0  0  0  0  0  0  0  0  0  0  0  0
   22.3163  -14.7847    0.0000 C   0  0  0  0  0  0  0  0  0  0  0  0
   21.1308  -14.1570    0.0000 C   0  0  0  0  0  0  0  0  0  0  0  0
   19.8755  -14.8544    0.0000 C   0  0  0  0  0  0  0  0  0  0  0  0
   15.0636  -16.2492    0.0000 C   0  0  0  0  0  0  0  0  0  0  0  0
   21.1311  -12.6925    0.0000 C   0  0  0  0  0  0  0  0  0  0  0  0
   23.5019  -14.0873    0.0000 N   0  0  0  0  0  0  0  0  0  0  0  0
   24.6874  -14.7847    0.0000 N   0  0  0  0  0  0  0  0  0  0  0  0
   25.9427  -14.0873    0.0000 C   0  0  0  0  0  0  0  0  0  0  0  0
   27.1282  -14.7847    0.0000 C   0  0  0  0  0  0  0  0  0  0  0  0
   28.3138  -14.0873    0.0000 C   0  0  0  0  0  0  0  0  0  0  0  0
   28.3138  -12.6925    0.0000 C   0  0  0  0  0  0  0  0  0  0  0  0
   27.1282  -11.9952    0.0000 C   0  0  0  0  0  0  0  0  0  0  0  0
   25.9427  -12.6925    0.0000 C   0  0  0  0  0  0  0  0  0  0  0  0
   29.5691  -14.7847    0.0000 C   0  0  0  0  0  0  0  0  0  0  0  0
   30.7546  -14.0873    0.0000 C   0  0  0  0  0  0  0  0  0  0  0  0
   30.7546  -12.6925    0.0000 C   0  0  0  0  0  0  0  0  0  0  0  0
   29.5691  -11.9952    0.0000 C   0  0  0  0  0  0  0  0  0  0  0  0
   27.1282  -16.1794    0.0000 O   0  0  0  0  0  0  0  0  0  0  0  0
   29.5691  -16.1794    0.0000 N   0  0  0  0  0  0  0  0  0  0  0  0
   24.6874  -11.9952    0.0000 S   0  0  0  0  0  0  0  0  0  0  0  0
   23.5019  -11.2978    0.0000 O   0  5  0  0  0  0  0  0  0  0  0  0
   25.3848  -10.8096    0.0000 O   0  0  0  0  0  0  0  0  0  0  0  0
   23.9900  -13.2504    0.0000 O   0  0  0  0  0  0  0  0  0  0  0  0
   31.9402  -11.9952    0.0000 S   0  0  0  0  0  0  0  0  0  0  0  0
   33.1954  -11.2978    0.0000 O   0  5  0  0  0  0  0  0  0  0  0  0
   31.2428  -10.8096    0.0000 O   0  0  0  0  0  0  0  0  0  0  0  0
   32.6375  -13.2504    0.0000 O   0  0  0  0  0  0  0  0  0  0  0  0
    3.1385  -22.2466    0.0000 Na  0  3  0  0  0  0  0  0  0  0  0  0
   17.0163  -22.3861    0.0000 Na  0  3  0  0  0  0  0  0  0  0  0  0
   22.0374   -9.6241    0.0000 Na  0  3  0  0  0  0  0  0  0  0  0  0
   34.1020   -9.5543    0.0000 Na  0  3  0  0  0  0  0  0  0  0  0  0
  1  2  2  0     0  0
  2  3  1  0     0  0
  3  4  2  0     0  0
  4  5  1  0     0  0
  5  6  2  0     0  0
  1  6  1  0     0  0
  4  7  1  0     0  0
  7  8  2  0     0  0
  8  9  1  0     0  0
  9 10  2  0     0  0
  5 10  1  0     0  0
  9 11  1  0     0  0
 10 12  1  0     0  0
  8 13  1  0     0  0
 13 14  1  0     0  0
 13 15  2  0     0  0
 13 16  2  0     0  0
  6 17  1  0     0  0
  2 18  1  0     0  0
 18 19  1  0     0  0
 18 20  2  0     0  0
 18 21  2  0     0  0
 11 22  2  0     0  0
 22 23  1  0     0  0
 23 24  2  0     0  0
 24 25  1  0     0  0
 25 26  2  0     0  0
 26 27  1  0     0  0
 27 28  2  0     0  0
 23 28  1  0     0  0
 26 29  1  0     0  0
 29 30  2  0     0  0
 30 31  1  0     0  0
 31 32  2  0     0  0
 32 33  1  0     0  0
 33 34  2  0     0  0
 29 34  1  0     0  0
 28 35  1  0     0  0
 33 36  1  0     0  0
 32 37  1  0     0  0
 37 38  2  0     0  0
 38 39  1  0     0  0
 39 40  2  0     0  0
 40 41  1  0     0  0
 41 42  2  0     0  0
 42 43  1  0     0  0
 43 44  2  0     0  0
 39 44  1  0     0  0
 41 45  1  0     0  0
 45 46  2  0     0  0
 46 47  1  0     0  0
 47 48  2  0     0  0
 42 48  1  0     0  0
 40 49  1  0     0  0
 45 50  1  0     0  0
 44 51  1  0     0  0
 51 52  1  0     0  0
 51 53  2  0     0  0
 51 54  2  0     0  0
 47 55  1  0     0  0
 55 56  1  0     0  0
 55 57  2  0     0  0
 55 58  2  0     0  0
M  CHG  8  14  -1  19  -1  52  -1  56  -1  59   1  60   1  61   1  62   1
M  END
