 
 
 
 20 21  0  0  0  0  0  0  0  0999 V2000
   15.7296  -14.8009    0.0000 C   0  0  0  0  0  0  0  0  0  0  0  0
   14.5116  -15.4869    0.0000 C   0  0  0  0  0  0  0  0  0  0  0  0
   14.4856  -16.8652    0.0000 C   0  0  0  0  0  0  0  0  0  0  0  0
   15.7120  -17.6184    0.0000 C   0  0  0  0  0  0  0  0  0  0  0  0
   16.9300  -16.9325    0.0000 C   0  0  0  0  0  0  0  0  0  0  0  0
   16.9217  -15.4933    0.0000 C   0  0  0  0  0  0  0  0  0  0  0  0
   18.1397  -14.8074    0.0000 N   0  0  0  0  0  0  0  0  0  0  0  0
   19.3428  -15.5192    0.0000 C   0  0  0  0  0  0  0  0  0  0  0  0
   20.5608  -14.8333    0.0000 C   0  0  0  0  0  0  0  0  0  0  0  0
   19.3728  -12.7236    0.0000 C   0  0  0  0  0  0  0  0  0  0  0  0
   18.1547  -13.4096    0.0000 C   0  0  0  0  0  0  0  0  0  0  0  0
   16.9517  -12.6976    0.0000 O   0  0  0  0  0  0  0  0  0  0  0  0
   19.3278  -16.9171    0.0000 C   0  0  0  0  0  0  0  0  0  0  0  0
   21.7489  -16.9430    0.0000 C   0  0  0  0  0  0  0  0  0  0  0  0
   21.7639  -15.5452    0.0000 N   0  0  0  0  0  0  0  0  0  0  0  0
   22.9519  -17.6549    0.0000 C   0  0  0  0  0  0  0  0  0  0  0  0
   24.1700  -16.9690    0.0000 C   0  0  0  0  0  0  0  0  0  0  0  0
   24.1850  -15.5712    0.0000 C   0  0  0  0  0  0  0  0  0  0  0  0
   22.9820  -14.8593    0.0000 C   0  0  0  0  0  0  0  0  0  0  0  0
   20.6341  -13.3284    0.0000 C   0  0  0  0  0  0  0  0  0  0  0  0
  1  2  2  0     0  0
  2  3  1  0     0  0
  3  4  2  0     0  0
  4  5  1  0     0  0
  5  6  2  0     0  0
  1  6  1  0     0  0
  6  7  1  0     0  0
  7  8  1  0     0  0
  8  9  1  0     0  0
 10 11  1  0     0  0
  7 11  1  0     0  0
 11 12  2  0     0  0
  8 13  1  0     0  0
 14 15  1  0     0  0
  9 15  1  0     0  0
 14 16  1  0     0  0
 16 17  1  0     0  0
 17 18  1  0     0  0
 18 19  1  0     0  0
 15 19  1  0     0  0
 10 20  1  0     0  0
M  END
