 
 
 
 23 24  0  0  0  0  0  0  0  0999 V2000
   15.4932  -17.3862    0.0000 C   0  0  0  0  0  0  0  0  0  0  0  0
   15.4932  -18.7182    0.0000 C   0  0  0  0  0  0  0  0  0  0  0  0
   16.6850  -19.4192    0.0000 C   0  0  0  0  0  0  0  0  0  0  0  0
   17.8767  -18.7182    0.0000 C   0  0  0  0  0  0  0  0  0  0  0  0
   17.8767  -17.3862    0.0000 C   0  0  0  0  0  0  0  0  0  0  0  0
   16.6850  -16.6852    0.0000 C   0  0  0  0  0  0  0  0  0  0  0  0
   20.2603  -18.7182    0.0000 C   0  0  0  0  0  0  0  0  0  0  0  0
   20.2603  -17.3862    0.0000 C   0  0  0  0  0  0  0  0  0  0  0  0
   19.0685  -16.6852    0.0000 C   0  0  0  0  0  0  0  0  0  0  0  0
   21.3820  -19.4192    0.0000 C   0  0  0  0  0  0  0  0  0  0  0  0
   22.5737  -18.7182    0.0000 C   0  0  0  0  0  0  0  0  0  0  0  0
   22.5737  -17.3862    0.0000 C   0  0  0  0  0  0  0  0  0  0  0  0
   21.3820  -16.6852    0.0000 C   0  0  0  0  0  0  0  0  0  0  0  0
   19.0685  -15.2831    0.0000 C   0  0  0  0  0  0  0  0  0  0  0  0
   20.2603  -14.6521    0.0000 C   0  0  0  0  0  0  0  0  0  0  0  0
   17.0355  -15.5635    0.0000 C   0  0  0  0  0  0  0  0  0  0  0  0
   21.3820  -15.2831    0.0000 C   0  0  0  0  0  0  0  0  0  0  0  0
   20.2603  -13.2501    0.0000 N   0  0  0  0  0  0  0  0  0  0  0  0
   21.3820  -12.5490    0.0000 C   0  0  0  0  0  0  0  0  0  0  0  0
   18.9984  -12.5490    0.0000 C   0  0  0  0  0  0  0  0  0  0  0  0
   17.0355  -14.2315    0.0000 O   0  0  0  0  0  0  0  0  0  0  0  0
   15.8437  -16.2645    0.0000 C   0  0  0  0  0  0  0  0  0  0  0  0
   14.7220  -15.5635    0.0000 C   0  0  0  0  0  0  0  0  0  0  0  0
  1  2  2  0     0  0
  2  3  1  0     0  0
  3  4  2  0     0  0
  4  5  1  0     0  0
  5  6  2  0     0  0
  1  6  1  0     0  0
  7  8  1  0     0  0
  8  9  1  0     0  0
  5  9  1  0     0  0
  7 10  2  0     0  0
 10 11  1  0     0  0
 11 12  2  0     0  0
 12 13  1  0     0  0
  8 13  2  0     0  0
  9 14  1  0     0  0
 14 15  1  0     0  0
  9 16  1  0     0  0
 15 17  1  0     0  0
 15 18  1  0     0  0
 18 19  1  0     0  0
 18 20  1  0     0  0
 16 21  1  0     0  0
 16 22  1  0     0  0
 22 23  1  0     0  0
M  END
