 
 
 
 20 21  0  0  1  0  0  0  0  0999 V2000
   15.9330  -17.1734    0.0000 N   0  0  0  0  0  0  0  0  0  0  0  0
   17.1365  -17.8655    0.0000 C   0  0  0  0  0  0  0  0  0  0  0  0
   18.3374  -17.1694    0.0000 C   0  0  0  0  0  0  0  0  0  0  0  0
   18.3351  -15.7812    0.0000 C   0  0  0  0  0  0  0  0  0  0  0  0
   17.1318  -15.0891    0.0000 C   0  0  0  0  0  0  0  0  0  0  0  0
   15.9307  -15.7853    0.0000 C   0  0  0  0  0  0  0  0  0  0  0  0
   17.1294  -13.7009    0.0000 C   0  0  0  0  0  0  0  0  0  0  0  0
   15.9260  -13.0088    0.0000 C   0  0  0  0  0  0  0  0  0  0  0  0
   14.7320  -17.8695    0.0000 C   0  0  0  0  0  0  0  0  0  0  0  0
   19.7191  -16.5771    0.0000 O   0  0  0  0  0  0  0  0  0  0  0  0
   20.4181  -17.7878    0.0000 C   0  0  0  0  0  0  0  0  0  0  0  0
   21.8162  -17.7878    0.0000 C   0  0  0  0  0  0  0  0  0  0  0  0
   22.5153  -16.5771    0.0000 C   0  0  0  0  0  0  0  0  0  0  0  0
   19.7191  -18.9986    0.0000 O   0  0  0  0  0  0  0  0  0  0  0  0
   19.5361  -15.0851    0.0000 C   0  0  0  0  0  0  0  0  0  0  0  0
   19.5338  -13.6969    0.0000 C   0  0  0  0  0  0  0  0  0  0  0  0
   20.7396  -15.7772    0.0000 C   0  0  0  0  0  0  0  0  0  0  0  0
   21.9406  -15.0810    0.0000 C   0  0  0  0  0  0  0  0  0  0  0  0
   21.9383  -13.6928    0.0000 C   0  0  0  0  0  0  0  0  0  0  0  0
   20.7349  -13.0007    0.0000 C   0  0  0  0  0  0  0  0  0  0  0  0
  1  2  1  0     0  0
  2  3  1  0     0  0
  3  4  1  0     0  0
  4  5  1  0     0  0
  5  6  1  0     0  0
  1  6  1  0     0  0
  5  7  1  6     0  0
  7  8  1  0     0  0
  1  9  1  0     0  0
  4 10  1  6     0  0
 10 11  1  0     0  0
 11 12  1  0     0  0
 12 13  1  0     0  0
 11 14  2  0     0  0
 15 16  2  0     0  0
 15 17  1  0     0  0
 17 18  2  0     0  0
 18 19  1  0     0  0
 19 20  2  0     0  0
 16 20  1  0     0  0
  4 15  1  1     0  0
M  END
