 
 
 
 23 27  0  0  1  0  0  0  0  0999 V2000
   17.4983  -16.4448    0.0000 C   0  0  2  0  0  0  0  0  0  0  0  0
   17.4983  -15.1798    0.0000 C   0  0  0  0  0  0  0  0  0  0  0  0
   18.6930  -17.1475    0.0000 C   0  0  2  0  0  0  0  0  0  0  0  0
   16.3740  -17.0773    0.0000 C   0  0  1  0  0  0  0  0  0  0  0  0
   18.6930  -15.8123    0.0000 C   0  0  0  0  0  0  0  0  0  0  0  0
   16.3740  -14.5474    0.0000 C   0  0  0  0  0  0  0  0  0  0  0  0
   18.6930  -14.5474    0.0000 C   0  0  0  0  0  0  0  0  0  0  0  0
   19.7470  -16.4448    0.0000 C   0  0  1  0  0  0  0  0  0  0  0  0
   18.6930  -18.4123    0.0000 C   0  0  0  0  0  0  0  0  0  0  0  0
   15.0388  -15.7421    0.0000 O   0  0  0  0  0  0  0  0  0  0  0  0
   16.3740  -18.4123    0.0000 C   0  0  2  0  0  0  0  0  0  0  0  0
   20.8713  -15.8123    0.0000 C   0  0  0  0  0  0  0  0  0  0  0  0
   16.3740  -13.2123    0.0000 C   0  0  0  0  0  0  0  0  0  0  0  0
   19.7470  -15.2501    0.0000 C   0  0  0  0  0  0  0  0  0  0  0  0
   18.6930  -13.2123    0.0000 C   0  0  0  0  0  0  0  0  0  0  0  0
   20.8713  -17.1475    0.0000 N   0  0  3  0  0  0  0  0  0  0  0  0
   17.4983  -19.1151    0.0000 C   0  0  0  0  0  0  0  0  0  0  0  0
   17.5686  -12.5798    0.0000 C   0  0  0  0  0  0  0  0  0  0  0  0
   15.2496  -12.5798    0.0000 O   0  0  0  0  0  0  0  0  0  0  0  0
   19.8875  -18.0610    0.0000 H   0  0  0  0  0  0  0  0  0  0  0  0
   22.2768  -17.1475    0.0000 C   0  0  0  0  0  0  0  0  0  0  0  0
   15.3858  -19.4005    0.0000 O   0  0  0  0  0  0  0  0  0  0  0  0
   15.0242  -18.0507    0.0000 C   0  0  0  0  0  0  0  0  0  0  0  0
  1  2  1  0     0  0
  1  3  1  0     0  0
  1  4  1  0     0  0
  1  5  1  1     0  0
  2  6  2  0     0  0
  2  7  1  0     0  0
  3  8  1  0     0  0
  3  9  1  0     0  0
  4 10  1  6     0  0
  4 11  1  0     0  0
  5 12  1  0     0  0
  6 13  1  0     0  0
  7 14  1  0     0  0
  7 15  2  0     0  0
  8 16  1  1     0  0
  9 17  1  0     0  0
 13 18  2  0     0  0
 13 19  1  0     0  0
  6 10  1  0     0  0
  8 14  1  0     0  0
 11 17  1  0     0  0
 12 16  1  0     0  0
 15 18  1  0     0  0
  3 20  1  1     0  0
 16 21  1  0     0  0
 11 22  1  6     0  0
 11 23  1  1     0  0
M  END
