 
 
 
 29 31  0  0  1  0  0  0  0  0999 V2000
   16.8700  -14.8400    0.0000 C   0  0  0  0  0  0  0  0  0  0  0  0
   18.0600  -15.5400    0.0000 C   0  0  0  0  0  0  0  0  0  0  0  0
   19.2500  -14.8400    0.0000 N   0  0  0  0  0  0  0  0  0  0  0  0
   18.0600  -16.9400    0.0000 O   0  0  0  0  0  0  0  0  0  0  0  0
   16.3800  -13.5100    0.0000 N   0  0  0  0  0  0  0  0  0  0  0  0
   14.9800  -13.5100    0.0000 N   0  0  0  0  0  0  0  0  0  0  0  0
   14.6300  -14.9100    0.0000 C   0  0  0  0  0  0  0  0  0  0  0  0
   15.7500  -15.6800    0.0000 C   0  0  0  0  0  0  0  0  0  0  0  0
   12.2500  -14.9100    0.0000 O   0  0  0  0  0  0  0  0  0  0  0  0
   13.4400  -15.6100    0.0000 C   0  0  0  0  0  0  0  0  0  0  0  0
   11.0600  -15.6100    0.0000 C   0  0  0  0  0  0  0  0  0  0  0  0
   17.1500  -12.3900    0.0000 C   0  0  0  0  0  0  0  0  0  0  0  0
   20.4400  -15.5400    0.0000 C   0  0  0  0  0  0  0  0  0  0  0  0
   20.4400  -16.9400    0.0000 N   0  0  0  0  0  0  0  0  0  0  0  0
   21.7700  -17.4300    0.0000 N   0  0  0  0  0  0  0  0  0  0  0  0
   22.6100  -16.3100    0.0000 C   0  0  0  0  0  0  0  0  0  0  0  0
   21.8400  -15.1200    0.0000 C   0  0  0  0  0  0  0  0  0  0  0  0
   24.0100  -16.3100    0.0000 C   0  0  0  0  0  0  0  0  0  0  0  0
   24.8500  -17.4300    0.0000 C   0  0  0  0  0  0  0  0  0  0  0  0
   26.1800  -16.9400    0.0000 C   0  0  0  0  0  0  0  0  0  0  0  0
   26.1800  -15.5400    0.0000 C   0  0  0  0  0  0  0  0  0  0  0  0
   24.8500  -15.1200    0.0000 C   0  0  0  0  0  0  0  0  0  0  0  0
   27.3700  -17.6400    0.0000 O   0  0  0  0  0  0  0  0  0  0  0  0
   28.5600  -16.9400    0.0000 C   0  0  0  0  0  0  0  0  0  0  0  0
   29.7500  -17.6400    0.0000 N   0  0  0  0  0  0  0  0  0  0  0  0
   28.5600  -15.5400    0.0000 O   0  0  0  0  0  0  0  0  0  0  0  0
   30.9400  -16.9400    0.0000 C   0  0  0  0  0  0  0  0  0  0  0  0
   32.1300  -17.6400    0.0000 C   0  0  0  0  0  0  0  0  0  0  0  0
   30.9400  -15.5400    0.0000 C   0  0  0  0  0  0  0  0  0  0  0  0
  1  2  1  0     0  0
  2  3  1  0     0  0
  2  4  2  0     0  0
  1  5  1  0     0  0
  5  6  1  0     0  0
  6  7  2  0     0  0
  7  8  1  0     0  0
  1  8  2  0     0  0
  9 10  1  0     0  0
 10  7  1  0     0  0
  9 11  1  0     0  0
  5 12  1  0     0  0
  3 13  1  0     0  0
 13 14  2  0     0  0
 14 15  1  0     0  0
 15 16  1  0     0  0
 16 17  2  0     0  0
 13 17  1  0     0  0
 18 16  1  1     0  0
 18 19  1  0     0  0
 19 20  1  0     0  0
 20 21  1  0     0  0
 21 22  1  0     0  0
 18 22  1  0     0  0
 20 23  1  1     0  0
 23 24  1  0     0  0
 24 25  1  0     0  0
 24 26  2  0     0  0
 25 27  1  0     0  0
 27 28  1  0     0  0
 27 29  1  0     0  0
M  END
