 
 
 
 31 35  0  0  1  0  0  0  0  0999 V2000
   14.7700  -12.0400    0.0000 C   0  0  0  0  0  0  0  0  0  0  0  0
   14.7700  -13.4400    0.0000 C   0  0  0  0  0  0  0  0  0  0  0  0
   15.9600  -14.1400    0.0000 N   0  0  0  0  0  0  0  0  0  0  0  0
   17.2200  -13.4400    0.0000 C   0  0  0  0  0  0  0  0  0  0  0  0
   17.2200  -12.0400    0.0000 N   0  0  0  0  0  0  0  0  0  0  0  0
   15.9600  -11.3400    0.0000 C   0  0  0  0  0  0  0  0  0  0  0  0
   18.5500  -13.8600    0.0000 C   0  0  0  0  0  0  0  0  0  0  0  0
   19.3200  -12.7400    0.0000 C   0  0  0  0  0  0  0  0  0  0  0  0
   18.5500  -11.6200    0.0000 N   0  0  0  0  0  0  0  0  0  0  0  0
   18.9700  -15.1900    0.0000 N   0  0  0  0  0  0  0  0  0  0  0  0
   18.1300  -16.3100    0.0000 C   0  0  0  0  0  0  0  0  0  0  0  0
   18.9700  -17.4300    0.0000 C   0  0  0  0  0  0  0  0  0  0  0  0
   20.3000  -17.0100    0.0000 C   0  0  0  0  0  0  0  0  0  0  0  0
   20.3000  -15.6100    0.0000 N   0  0  0  0  0  0  0  0  0  0  0  0
   18.5500  -18.7600    0.0000 C   0  0  0  0  0  0  0  0  0  0  0  0
   18.2000  -20.0900    0.0000 F   0  0  0  0  0  0  0  0  0  0  0  0
   17.1500  -18.4100    0.0000 F   0  0  0  0  0  0  0  0  0  0  0  0
   19.8800  -19.1100    0.0000 F   0  0  0  0  0  0  0  0  0  0  0  0
   13.5800  -14.1400    0.0000 N   0  0  0  0  0  0  0  0  0  0  0  0
   12.3200  -13.5800    0.0000 C   0  0  0  0  0  0  0  0  0  0  0  0
   11.3400  -14.6300    0.0000 C   0  0  0  0  0  0  0  0  0  0  0  0
   12.0400  -15.8200    0.0000 C   0  0  0  0  0  0  0  0  0  0  0  0
   13.4400  -15.5400    0.0000 C   0  0  0  0  0  0  0  0  0  0  0  0
   12.0407  -12.2081    0.0000 C   0  0  0  0  0  0  0  0  0  0  0  0
   13.1028  -11.2687    0.0000 C   0  0  0  0  0  0  0  0  0  0  0  0
   12.8238   -9.8968    0.0000 C   0  0  0  0  0  0  0  0  0  0  0  0
   11.4962   -9.4524    0.0000 C   0  0  0  0  0  0  0  0  0  0  0  0
   10.4341  -10.3919    0.0000 C   0  0  0  0  0  0  0  0  0  0  0  0
   10.7131  -11.7638    0.0000 C   0  0  0  0  0  0  0  0  0  0  0  0
    9.6646  -12.6912    0.0000 F   0  0  0  0  0  0  0  0  0  0  0  0
   13.8778   -8.9646    0.0000 F   0  0  0  0  0  0  0  0  0  0  0  0
  1  2  1  0     0  0
  2  3  2  0     0  0
  3  4  1  0     0  0
  4  5  1  0     0  0
  5  6  1  0     0  0
  1  6  2  0     0  0
  4  7  2  0     0  0
  7  8  1  0     0  0
  8  9  2  0     0  0
  5  9  1  0     0  0
  7 10  1  0     0  0
 10 11  1  0     0  0
 11 12  2  0     0  0
 12 13  1  0     0  0
 13 14  2  0     0  0
 10 14  1  0     0  0
 12 15  1  0     0  0
 15 16  1  0     0  0
 15 17  1  0     0  0
 15 18  1  0     0  0
  2 19  1  0     0  0
 19 20  1  0     0  0
 20 21  1  0     0  0
 21 22  1  0     0  0
 22 23  1  0     0  0
 19 23  1  0     0  0
 20 24  1  6     0  0
 24 25  2  0     0  0
 25 26  1  0     0  0
 26 27  2  0     0  0
 27 28  1  0     0  0
 28 29  2  0     0  0
 24 29  1  0     0  0
 29 30  1  0     0  0
 26 31  1  0     0  0
M  END
