 
 
 
 17 18  0  0  0  0  0  0  0  0999 V2000
   19.9701  -14.7849    0.0000 C   0  0  0  0  0  0  0  0  0  0  0  0
   19.9701  -16.1863    0.0000 C   0  0  0  0  0  0  0  0  0  0  0  0
   21.1613  -16.8870    0.0000 C   0  0  0  0  0  0  0  0  0  0  0  0
   18.7789  -16.8870    0.0000 C   0  0  0  0  0  0  0  0  0  0  0  0
   17.5877  -16.1863    0.0000 C   0  0  0  0  0  0  0  0  0  0  0  0
   17.5877  -14.7849    0.0000 C   0  0  0  0  0  0  0  0  0  0  0  0
   16.3965  -16.8870    0.0000 N   0  0  0  0  0  0  0  0  0  0  0  0
   16.3965  -18.5687    0.0000 C   0  0  0  0  0  0  0  0  0  0  0  0
   15.1352  -16.1863    0.0000 C   0  0  0  0  0  0  0  0  0  0  0  0
   21.3014  -18.2183    0.0000 C   0  0  0  0  0  0  0  0  0  0  0  0
   22.7028  -18.4986    0.0000 C   0  0  0  0  0  0  0  0  0  0  0  0
   23.4035  -17.3074    0.0000 C   0  0  0  0  0  0  0  0  0  0  0  0
   22.4225  -16.3264    0.0000 S   0  0  0  0  0  0  0  0  0  0  0  0
   21.0912  -13.9440    0.0000 S   0  0  0  0  0  0  0  0  0  0  0  0
   20.6708  -12.6827    0.0000 C   0  0  0  0  0  0  0  0  0  0  0  0
   19.2694  -12.6827    0.0000 C   0  0  0  0  0  0  0  0  0  0  0  0
   18.8489  -13.9440    0.0000 C   0  0  0  0  0  0  0  0  0  0  0  0
  1  2  1  0     0  0
  2  3  1  0     0  0
  2  4  2  0     0  0
  4  5  1  0     0  0
  5  6  1  0     0  0
  5  7  1  0     0  0
  7  8  1  0     0  0
  7  9  1  0     0  0
  3 10  2  0     0  0
 10 11  1  0     0  0
 11 12  2  0     0  0
 12 13  1  0     0  0
  3 13  1  0     0  0
  1 14  1  0     0  0
 14 15  1  0     0  0
 15 16  2  0     0  0
 16 17  1  0     0  0
  1 17  2  0     0  0
M  END
