 
 
 
 42 47  0  0  1  0  0  0  0  0999 V2000
   24.9836  -14.0615    0.0000 C   0  0  0  0  0  0  0  0  0  0  0  0
   26.1503  -14.7478    0.0000 N   0  0  0  0  0  0  0  0  0  0  0  0
   23.8168  -14.7478    0.0000 C   0  0  0  0  0  0  0  0  0  0  0  0
   24.9836  -12.6888    0.0000 O   0  0  0  0  0  0  0  0  0  0  0  0
   22.6500  -14.0615    0.0000 C   0  0  0  0  0  0  0  0  0  0  0  0
   21.4146  -14.7478    0.0000 C   0  0  0  0  0  0  0  0  0  0  0  0
   21.4146  -16.1205    0.0000 C   0  0  0  0  0  0  0  0  0  0  0  0
   22.5814  -16.8068    0.0000 C   0  0  0  0  0  0  0  0  0  0  0  0
   23.8168  -16.1205    0.0000 O   0  0  0  0  0  0  0  0  0  0  0  0
   20.2478  -16.8068    0.0000 N   0  0  0  0  0  0  0  0  0  0  0  0
   19.0810  -16.1205    0.0000 C   0  0  0  0  0  0  0  0  0  0  0  0
   19.0810  -14.7478    0.0000 O   0  0  0  0  0  0  0  0  0  0  0  0
   17.9142  -16.8068    0.0000 C   0  0  0  0  0  0  0  0  0  0  0  0
   12.2176  -17.9736    0.0000 C   0  0  0  0  0  0  0  0  0  0  0  0
   12.2176  -19.3463    0.0000 C   0  0  0  0  0  0  0  0  0  0  0  0
   13.3844  -20.0327    0.0000 C   0  0  0  0  0  0  0  0  0  0  0  0
   14.6198  -19.3463    0.0000 C   0  0  0  0  0  0  0  0  0  0  0  0
   14.6198  -17.9736    0.0000 C   0  0  0  0  0  0  0  0  0  0  0  0
   13.3844  -17.2873    0.0000 C   0  0  0  0  0  0  0  0  0  0  0  0
   15.6493  -17.0814    0.0000 C   0  0  0  0  0  0  0  0  0  0  0  0
   15.0316  -15.7773    0.0000 C   0  0  0  0  0  0  0  0  0  0  0  0
   13.6589  -15.9146    0.0000 N   0  0  0  0  0  0  0  0  0  0  0  0
   16.1984  -18.3168    0.0000 C   0  0  0  0  0  0  0  0  0  0  0  0
   17.5711  -18.1795    0.0000 N   0  0  0  0  0  0  0  0  0  0  0  0
   16.6788  -16.1205    0.0000 C   0  0  0  0  0  0  0  0  0  0  0  0
   15.0316  -19.0031    0.0000 C   0  0  0  0  0  0  0  0  0  0  0  0
   15.0316  -20.3758    0.0000 C   0  0  0  0  0  0  0  0  0  0  0  0
   16.1984  -21.0622    0.0000 C   0  0  0  0  0  0  0  0  0  0  0  0
   17.4338  -20.3758    0.0000 C   0  0  0  0  0  0  0  0  0  0  0  0
   17.4338  -19.0031    0.0000 C   0  0  0  0  0  0  0  0  0  0  0  0
   11.0508  -20.0327    0.0000 Cl  0  0  0  0  0  0  0  0  0  0  0  0
   15.7069  -14.5823    0.0000 O   0  0  0  0  0  0  0  0  0  0  0  0
   16.5118  -13.7971    0.0000 C   0  0  0  0  0  0  0  0  0  0  0  0
   17.6830  -13.0245    0.0000 C   0  0  0  0  0  0  0  0  0  0  0  0
   17.6013  -11.6543    0.0000 C   0  0  0  0  0  0  0  0  0  0  0  0
   16.3737  -11.0399    0.0000 N   0  0  0  0  0  0  0  0  0  0  0  0
   15.2026  -11.8125    0.0000 C   0  0  0  0  0  0  0  0  0  0  0  0
   15.2844  -13.1828    0.0000 C   0  0  0  0  0  0  0  0  0  0  0  0
   18.9337  -13.6506    0.0000 F   0  0  0  0  0  0  0  0  0  0  0  0
   18.7235  -10.9135    0.0000 Cl  0  0  0  0  0  0  0  0  0  0  0  0
   15.2084  -22.0521    0.0000 C   0  0  0  0  0  0  0  0  0  0  0  0
   17.1883  -22.0521    0.0000 C   0  0  0  0  0  0  0  0  0  0  0  0
  1  2  1  0     0  0
  3  1  1  1     0  0
  1  4  2  0     0  0
  3  5  1  0     0  0
  5  6  1  0     0  0
  6  7  1  0     0  0
  7  8  1  0     0  0
  8  9  1  0     0  0
  3  9  1  0     0  0
  7 10  1  6     0  0
 10 11  1  0     0  0
 11 12  2  0     0  0
 13 11  1  6     0  0
 14 15  2  0     0  0
 15 16  1  0     0  0
 16 17  2  0     0  0
 17 18  1  0     0  0
 18 19  2  0     0  0
 14 19  1  0     0  0
 20 18  1  6     0  0
 20 21  1  1     0  0
 21 22  1  0     0  0
 19 22  1  0     0  0
 20 23  1  0     0  0
 23 24  1  0     0  0
 24 13  1  0     0  0
 13 25  1  0     0  0
 20 25  1  0     0  0
 26 27  1  0     0  0
 27 28  1  0     0  0
 28 29  1  0     0  0
 29 30  1  0     0  0
 30 23  1  0     0  0
 26 23  1  0     0  0
 15 31  1  0     0  0
 21 32  2  0     0  0
 25 33  1  1     0  0
 33 34  2  0     0  0
 34 35  1  0     0  0
 35 36  2  0     0  0
 36 37  1  0     0  0
 37 38  2  0     0  0
 33 38  1  0     0  0
 34 39  1  0     0  0
 35 40  1  0     0  0
 28 41  1  0     0  0
 28 42  1  0     0  0
M  END
