 
 
 
 27 29  0  0  0  0  0  0  0  0999 V2000
   22.4998  -12.3363    0.0000 C   0  0  0  0  0  0  0  0  0  0  0  0
   22.4998  -13.6681    0.0000 C   0  0  0  0  0  0  0  0  0  0  0  0
   23.6914  -14.3690    0.0000 C   0  0  0  0  0  0  0  0  0  0  0  0
   24.8830  -13.6681    0.0000 C   0  0  0  0  0  0  0  0  0  0  0  0
   24.8830  -12.3363    0.0000 C   0  0  0  0  0  0  0  0  0  0  0  0
   23.6914  -11.6354    0.0000 C   0  0  0  0  0  0  0  0  0  0  0  0
   21.2381  -14.3690    0.0000 C   0  0  0  0  0  0  0  0  0  0  0  0
   20.0466  -13.7382    0.0000 C   0  0  0  0  0  0  0  0  0  0  0  0
   18.8550  -14.4391    0.0000 C   0  0  0  0  0  0  0  0  0  0  0  0
   18.8550  -15.8410    0.0000 N   0  0  0  0  0  0  0  0  0  0  0  0
   20.0466  -16.4718    0.0000 C   0  0  0  0  0  0  0  0  0  0  0  0
   21.2381  -15.7709    0.0000 C   0  0  0  0  0  0  0  0  0  0  0  0
   17.6634  -16.5419    0.0000 C   0  0  0  0  0  0  0  0  0  0  0  0
   21.9391  -15.6307    0.0000 C   0  0  0  0  0  0  0  0  0  0  0  0
   23.4110  -15.6307    0.0000 O   0  0  0  0  0  0  0  0  0  0  0  0
   21.2381  -16.8223    0.0000 O   0  0  0  0  0  0  0  0  0  0  0  0
   24.0419  -16.8223    0.0000 C   0  0  0  0  0  0  0  0  0  0  0  0
   25.5138  -16.8223    0.0000 C   0  0  0  0  0  0  0  0  0  0  0  0
   16.4181  -15.8366    0.0000 C   0  0  0  0  0  0  0  0  0  0  0  0
   15.2115  -16.5466    0.0000 C   0  0  0  0  0  0  0  0  0  0  0  0
   13.9933  -15.8566    0.0000 N   0  0  0  0  0  0  0  0  0  0  0  0
   12.7867  -16.5666    0.0000 C   0  0  0  0  0  0  0  0  0  0  0  0
   12.7983  -17.9665    0.0000 C   0  0  0  0  0  0  0  0  0  0  0  0
   11.5686  -15.8766    0.0000 C   0  0  0  0  0  0  0  0  0  0  0  0
   10.3619  -16.5865    0.0000 C   0  0  0  0  0  0  0  0  0  0  0  0
   10.3735  -17.9865    0.0000 C   0  0  0  0  0  0  0  0  0  0  0  0
   11.5916  -18.6765    0.0000 C   0  0  0  0  0  0  0  0  0  0  0  0
  1  2  2  0     0  0
  2  3  1  0     0  0
  3  4  2  0     0  0
  4  5  1  0     0  0
  5  6  2  0     0  0
  1  6  1  0     0  0
  2  7  1  0     0  0
  7  8  1  0     0  0
  8  9  1  0     0  0
  9 10  1  0     0  0
 10 11  1  0     0  0
 11 12  1  0     0  0
  7 12  1  0     0  0
 10 13  1  0     0  0
  7 14  1  0     0  0
 14 15  1  0     0  0
 14 16  2  0     0  0
 15 17  1  0     0  0
 17 18  1  0     0  0
 13 19  1  0     0  0
 19 20  1  0     0  0
 20 21  1  0     0  0
 21 22  1  0     0  0
 22 23  2  0     0  0
 22 24  1  0     0  0
 24 25  2  0     0  0
 25 26  1  0     0  0
 26 27  2  0     0  0
 23 27  1  0     0  0
M  END
