 
 
 
 41 46  0  0  1  0  0  0  0  0999 V2000
   13.7200  -13.0900    0.0000 C   0  0  0  0  0  0  0  0  0  0  0  0
   13.7200  -14.4900    0.0000 C   0  0  0  0  0  0  0  0  0  0  0  0
   14.9100  -15.1900    0.0000 C   0  0  0  0  0  0  0  0  0  0  0  0
   16.1700  -14.4900    0.0000 C   0  0  0  0  0  0  0  0  0  0  0  0
   16.1700  -13.0900    0.0000 C   0  0  0  0  0  0  0  0  0  0  0  0
   14.9100  -12.3900    0.0000 C   0  0  0  0  0  0  0  0  0  0  0  0
   17.3600  -15.1900    0.0000 C   0  0  0  0  0  0  0  0  0  0  0  0
   18.5500  -14.4900    0.0000 C   0  0  0  0  0  0  0  0  0  0  0  0
   18.5500  -13.0900    0.0000 N   0  0  0  0  0  0  0  0  0  0  0  0
   17.3600  -12.3900    0.0000 C   0  0  0  0  0  0  0  0  0  0  0  0
   16.1700  -11.6900    0.0000 C   0  0  0  0  0  0  0  0  0  0  0  0
   17.3600  -10.9900    0.0000 O   0  0  0  0  0  0  0  0  0  0  0  0
   14.9800  -10.9900    0.0000 C   0  0  0  0  0  0  0  0  0  0  0  0
   14.9800   -9.5900    0.0000 C   0  0  0  0  0  0  0  0  0  0  0  0
   13.7200   -8.8900    0.0000 C   0  0  0  0  0  0  0  0  0  0  0  0
   12.5300   -9.5900    0.0000 C   0  0  0  0  0  0  0  0  0  0  0  0
   12.5300  -10.9900    0.0000 C   0  0  0  0  0  0  0  0  0  0  0  0
   13.7200  -11.6900    0.0000 N   0  0  0  0  0  0  0  0  0  0  0  0
   19.7400  -12.3900    0.0000 S   0  0  0  0  0  0  0  0  0  0  0  0
   20.7900  -11.4100    0.0000 O   0  0  0  0  0  0  0  0  0  0  0  0
   12.3900  -12.6700    0.0000 C   0  0  0  0  0  0  0  0  0  0  0  0
   11.5500  -13.7900    0.0000 N   0  0  0  0  0  0  0  0  0  0  0  0
   12.3900  -14.9800    0.0000 N   0  0  0  0  0  0  0  0  0  0  0  0
   11.9700  -16.2400    0.0000 C   0  0  0  0  0  0  0  0  0  0  0  0
   10.6400  -16.5900    0.0000 C   0  0  0  0  0  0  0  0  0  0  0  0
   10.1500  -17.9200    0.0000 C   0  0  0  0  0  0  0  0  0  0  0  0
   11.1300  -18.9700    0.0000 C   0  0  0  0  0  0  0  0  0  0  0  0
   12.4600  -18.6200    0.0000 C   0  0  0  0  0  0  0  0  0  0  0  0
   12.8800  -17.2900    0.0000 C   0  0  0  0  0  0  0  0  0  0  0  0
   10.7100  -20.2300    0.0000 F   0  0  0  0  0  0  0  0  0  0  0  0
   20.9300  -13.0900    0.0000 C   0  0  0  0  0  0  0  0  0  0  0  0
   18.7600  -11.4100    0.0000 O   0  0  0  0  0  0  0  0  0  0  0  0
   20.9300  -14.4900    0.0000 C   0  0  0  0  0  0  0  0  0  0  0  0
   22.1900  -15.1900    0.0000 C   0  0  0  0  0  0  0  0  0  0  0  0
   23.3800  -14.4900    0.0000 C   0  0  0  0  0  0  0  0  0  0  0  0
   23.3800  -13.0900    0.0000 C   0  0  0  0  0  0  0  0  0  0  0  0
   22.1900  -12.3900    0.0000 C   0  0  0  0  0  0  0  0  0  0  0  0
   24.5700  -15.1900    0.0000 C   0  0  0  0  0  0  0  0  0  0  0  0
   25.8300  -15.8900    0.0000 F   0  0  0  0  0  0  0  0  0  0  0  0
   25.2700  -14.0000    0.0000 F   0  0  0  0  0  0  0  0  0  0  0  0
   23.8700  -16.3800    0.0000 F   0  0  0  0  0  0  0  0  0  0  0  0
  1  2  2  0     0  0
  2  3  1  0     0  0
  3  4  2  0     0  0
  4  5  1  0     0  0
  5  6  1  0     0  0
  1  6  1  0     0  0
  4  7  1  0     0  0
  7  8  1  0     0  0
  8  9  1  0     0  0
  9 10  1  0     0  0
  5 10  1  0     0  0
  5 11  1  1     0  0
 11 12  2  0     0  0
 11 13  1  0     0  0
 13 14  2  0     0  0
 14 15  1  0     0  0
 15 16  2  0     0  0
 16 17  1  0     0  0
 17 18  2  0     0  0
 13 18  1  0     0  0
  9 19  1  0     0  0
 19 20  2  0     0  0
  1 21  1  0     0  0
 21 22  2  0     0  0
 22 23  1  0     0  0
  2 23  1  0     0  0
 23 24  1  0     0  0
 24 25  2  0     0  0
 25 26  1  0     0  0
 26 27  2  0     0  0
 27 28  1  0     0  0
 28 29  2  0     0  0
 24 29  1  0     0  0
 27 30  1  0     0  0
 19 31  1  0     0  0
 19 32  2  0     0  0
 31 33  2  0     0  0
 33 34  1  0     0  0
 34 35  2  0     0  0
 35 36  1  0     0  0
 36 37  2  0     0  0
 31 37  1  0     0  0
 35 38  1  0     0  0
 38 39  1  0     0  0
 38 40  1  0     0  0
 38 41  1  0     0  0
M  END
