 
 
 
 20 21  0  0  1  0  0  0  0  0999 V2000
   15.9404  -17.1394    0.0000 N   0  0  0  0  0  0  0  0  0  0  0  0
   17.1394  -17.8447    0.0000 C   0  0  0  0  0  0  0  0  0  0  0  0
   18.3384  -17.1394    0.0000 C   0  0  0  0  0  0  0  0  0  0  0  0
   18.3384  -15.7288    0.0000 C   0  0  0  0  0  0  0  0  0  0  0  0
   17.1394  -15.0941    0.0000 C   0  0  0  0  0  0  0  0  0  0  0  0
   15.9404  -15.7994    0.0000 C   0  0  0  0  0  0  0  0  0  0  0  0
   17.1394  -13.6835    0.0000 C   0  0  0  0  0  0  0  0  0  0  0  0
   15.9404  -12.9782    0.0000 C   0  0  0  0  0  0  0  0  0  0  0  0
   14.6709  -17.8447    0.0000 C   0  0  0  0  0  0  0  0  0  0  0  0
   19.5374  -15.0941    0.0000 C   0  0  0  0  0  0  0  0  0  0  0  0
   19.5374  -13.6835    0.0000 C   0  0  0  0  0  0  0  0  0  0  0  0
   20.7364  -15.7288    0.0000 C   0  0  0  0  0  0  0  0  0  0  0  0
   21.9354  -15.0236    0.0000 C   0  0  0  0  0  0  0  0  0  0  0  0
   21.9354  -13.6835    0.0000 C   0  0  0  0  0  0  0  0  0  0  0  0
   20.7364  -12.9782    0.0000 C   0  0  0  0  0  0  0  0  0  0  0  0
   19.7490  -16.5752    0.0000 O   0  0  0  0  0  0  0  0  0  0  0  0
   20.4543  -17.7742    0.0000 C   0  0  0  0  0  0  0  0  0  0  0  0
   21.8648  -17.7742    0.0000 C   0  0  0  0  0  0  0  0  0  0  0  0
   22.5701  -16.5752    0.0000 C   0  0  0  0  0  0  0  0  0  0  0  0
   19.7490  -18.9732    0.0000 O   0  0  0  0  0  0  0  0  0  0  0  0
  1  2  1  0     0  0
  2  3  1  0     0  0
  3  4  1  0     0  0
  4  5  1  0     0  0
  5  6  1  0     0  0
  1  6  1  0     0  0
  5  7  1  1     0  0
  7  8  1  0     0  0
  1  9  1  0     0  0
 10 11  2  0     0  0
 10 12  1  0     0  0
 12 13  2  0     0  0
 13 14  1  0     0  0
 14 15  2  0     0  0
 11 15  1  0     0  0
  4 10  1  1     0  0
 16 17  1  0     0  0
 17 18  1  0     0  0
 18 19  1  0     0  0
 17 20  2  0     0  0
  4 16  1  6     0  0
M  END
