 
 
 
 21 25  0  0  1  0  0  0  0  0999 V2000
   17.4613  -16.5460    0.0000 C   0  0  2  0  0  0  0  0  0  0  0  0
   17.4613  -15.2787    0.0000 C   0  0  0  0  0  0  0  0  0  0  0  0
   18.6582  -17.2501    0.0000 C   0  0  2  0  0  0  0  0  0  0  0  0
   16.3348  -17.1797    0.0000 C   0  0  1  0  0  0  0  0  0  0  0  0
   18.6582  -15.9124    0.0000 C   0  0  0  0  0  0  0  0  0  0  0  0
   16.3348  -14.6451    0.0000 C   0  0  0  0  0  0  0  0  0  0  0  0
   18.6582  -14.6451    0.0000 C   0  0  0  0  0  0  0  0  0  0  0  0
   19.7142  -16.5460    0.0000 C   0  0  1  0  0  0  0  0  0  0  0  0
   18.6582  -18.5173    0.0000 C   0  0  0  0  0  0  0  0  0  0  0  0
   14.9971  -15.8420    0.0000 O   0  0  0  0  0  0  0  0  0  0  0  0
   16.3348  -18.5173    0.0000 C   0  0  2  0  0  0  0  0  0  0  0  0
   20.8407  -15.9124    0.0000 C   0  0  0  0  0  0  0  0  0  0  0  0
   16.3348  -13.3074    0.0000 C   0  0  0  0  0  0  0  0  0  0  0  0
   19.7142  -15.3491    0.0000 C   0  0  0  0  0  0  0  0  0  0  0  0
   18.6582  -13.3074    0.0000 C   0  0  0  0  0  0  0  0  0  0  0  0
   20.8407  -17.2501    0.0000 N   0  0  3  0  0  0  0  0  0  0  0  0
   17.4613  -19.2214    0.0000 C   0  0  0  0  0  0  0  0  0  0  0  0
   17.5317  -12.6737    0.0000 C   0  0  0  0  0  0  0  0  0  0  0  0
   15.2083  -12.6737    0.0000 O   0  0  0  0  0  0  0  0  0  0  0  0
   19.8550  -18.1653    0.0000 H   0  0  0  0  0  0  0  0  0  0  0  0
   22.2488  -17.2501    0.0000 C   0  0  0  0  0  0  0  0  0  0  0  0
  1  2  1  0     0  0
  1  3  1  0     0  0
  1  4  1  0     0  0
  1  5  1  1     0  0
  2  6  2  0     0  0
  2  7  1  0     0  0
  3  8  1  0     0  0
  3  9  1  0     0  0
  4 10  1  6     0  0
  4 11  1  0     0  0
  5 12  1  0     0  0
  6 13  1  0     0  0
  7 14  1  0     0  0
  7 15  2  0     0  0
  8 16  1  1     0  0
 13 18  2  0     0  0
 13 19  1  0     0  0
  6 10  1  0     0  0
  8 14  1  0     0  0
 11 17  1  0     0  0
 12 16  1  0     0  0
 15 18  1  0     0  0
  3 20  1  1     0  0
 16 21  1  0     0  0
 17  9  1  0     0  0
M  END
