 
 
 
 37 41  0  0  0  0  0  0  0  0999 V2000
   16.1882  -13.8785    0.0000 N   0  0  0  0  0  0  0  0  0  0  0  0
   16.1882  -15.2804    0.0000 C   0  0  0  0  0  0  0  0  0  0  0  0
   17.3798  -15.9813    0.0000 N   0  0  0  0  0  0  0  0  0  0  0  0
   18.6415  -15.2804    0.0000 C   0  0  0  0  0  0  0  0  0  0  0  0
   18.6415  -13.8785    0.0000 N   0  0  0  0  0  0  0  0  0  0  0  0
   17.3798  -13.1775    0.0000 C   0  0  0  0  0  0  0  0  0  0  0  0
   17.3798  -11.7756    0.0000 O   0  0  0  0  0  0  0  0  0  0  0  0
   14.9966  -15.9813    0.0000 O   0  0  0  0  0  0  0  0  0  0  0  0
   19.8331  -15.9813    0.0000 N   0  0  0  0  0  0  0  0  0  0  0  0
   17.3798  -17.3832    0.0000 C   0  0  0  0  0  0  0  0  0  0  0  0
   16.1882  -18.0841    0.0000 C   0  0  0  0  0  0  0  0  0  0  0  0
   14.9966  -17.3832    0.0000 C   0  0  0  0  0  0  0  0  0  0  0  0
   13.7349  -18.0841    0.0000 C   0  0  0  0  0  0  0  0  0  0  0  0
   13.7349  -19.4860    0.0000 C   0  0  0  0  0  0  0  0  0  0  0  0
   14.9265  -20.1870    0.0000 C   0  0  0  0  0  0  0  0  0  0  0  0
   16.1882  -19.4860    0.0000 C   0  0  0  0  0  0  0  0  0  0  0  0
   12.4732  -17.3832    0.0000 F   0  0  0  0  0  0  0  0  0  0  0  0
   17.3798  -20.1870    0.0000 F   0  0  0  0  0  0  0  0  0  0  0  0
   12.5433  -20.1870    0.0000 F   0  0  0  0  0  0  0  0  0  0  0  0
   14.9966  -13.1775    0.0000 C   0  0  0  0  0  0  0  0  0  0  0  0
   13.8050  -13.8084    0.0000 C   0  0  0  0  0  0  0  0  0  0  0  0
   12.4732  -13.4579    0.0000 N   0  0  0  0  0  0  0  0  0  0  0  0
   11.7022  -14.6495    0.0000 N   0  0  0  0  0  0  0  0  0  0  0  0
   12.5433  -15.7009    0.0000 C   0  0  0  0  0  0  0  0  0  0  0  0
   13.8050  -15.2103    0.0000 N   0  0  0  0  0  0  0  0  0  0  0  0
   10.3003  -14.6495    0.0000 C   0  0  0  0  0  0  0  0  0  0  0  0
   21.0948  -15.2804    0.0000 C   0  0  0  0  0  0  0  0  0  0  0  0
   22.2864  -15.9813    0.0000 C   0  0  0  0  0  0  0  0  0  0  0  0
   23.4780  -15.2804    0.0000 C   0  0  0  0  0  0  0  0  0  0  0  0
   23.4780  -13.8785    0.0000 C   0  0  0  0  0  0  0  0  0  0  0  0
   22.2864  -13.1775    0.0000 C   0  0  0  0  0  0  0  0  0  0  0  0
   21.0948  -13.8785    0.0000 C   0  0  0  0  0  0  0  0  0  0  0  0
   19.8331  -13.1775    0.0000 Cl  0  0  0  0  0  0  0  0  0  0  0  0
   24.8098  -15.7009    0.0000 C   0  0  0  0  0  0  0  0  0  0  0  0
   25.6509  -14.5794    0.0000 N   0  0  0  0  0  0  0  0  0  0  0  0
   24.8098  -13.3878    0.0000 N   0  0  0  0  0  0  0  0  0  0  0  0
   27.0528  -14.5794    0.0000 C   0  0  0  0  0  0  0  0  0  0  0  0
  1  2  1  0     0  0
  2  3  1  0     0  0
  3  4  1  0     0  0
  4  5  1  0     0  0
  5  6  1  0     0  0
  1  6  1  0     0  0
  6  7  2  0     0  0
  2  8  2  0     0  0
  4  9  2  0     0  0
  3 10  1  0     0  0
 10 11  1  0     0  0
 11 12  2  0     0  0
 12 13  1  0     0  0
 13 14  2  0     0  0
 14 15  1  0     0  0
 15 16  2  0     0  0
 11 16  1  0     0  0
 13 17  1  0     0  0
 16 18  1  0     0  0
 14 19  1  0     0  0
  1 20  1  0     0  0
 20 21  1  0     0  0
 21 22  2  0     0  0
 22 23  1  0     0  0
 23 24  1  0     0  0
 24 25  2  0     0  0
 21 25  1  0     0  0
 23 26  1  0     0  0
  9 27  1  0     0  0
 27 28  2  0     0  0
 28 29  1  0     0  0
 29 30  1  0     0  0
 30 31  1  0     0  0
 31 32  2  0     0  0
 27 32  1  0     0  0
 32 33  1  0     0  0
 29 34  2  0     0  0
 34 35  1  0     0  0
 35 36  1  0     0  0
 30 36  2  0     0  0
 35 37  1  0     0  0
M  END
