 
 
 
 26 27  0  0  1  0  0  0  0  0999 V2000
   15.5065  -17.6113    0.0000 C   0  0  0  0  0  0  0  0  0  0  0  0
   15.5065  -18.9444    0.0000 C   0  0  0  0  0  0  0  0  0  0  0  0
   16.6993  -19.6461    0.0000 C   0  0  0  0  0  0  0  0  0  0  0  0
   17.8921  -18.9444    0.0000 C   0  0  0  0  0  0  0  0  0  0  0  0
   17.8921  -17.6113    0.0000 C   0  0  0  0  0  0  0  0  0  0  0  0
   16.6993  -16.9096    0.0000 C   0  0  0  0  0  0  0  0  0  0  0  0
   20.2777  -18.9444    0.0000 C   0  0  0  0  0  0  0  0  0  0  0  0
   20.2777  -17.6113    0.0000 C   0  0  0  0  0  0  0  0  0  0  0  0
   19.0849  -16.9096    0.0000 C   0  0  0  0  0  0  0  0  0  0  0  0
   21.4004  -19.6461    0.0000 C   0  0  0  0  0  0  0  0  0  0  0  0
   22.5932  -18.9444    0.0000 C   0  0  0  0  0  0  0  0  0  0  0  0
   22.5932  -17.6113    0.0000 C   0  0  0  0  0  0  0  0  0  0  0  0
   21.4004  -16.9096    0.0000 C   0  0  0  0  0  0  0  0  0  0  0  0
   19.0849  -15.5063    0.0000 C   0  0  0  0  0  0  0  0  0  0  0  0
   20.2777  -14.8749    0.0000 C   0  0  0  0  0  0  0  0  0  0  0  0
   17.0501  -15.7870    0.0000 C   0  0  0  0  0  0  0  0  0  0  0  0
   21.4004  -15.5063    0.0000 C   0  0  0  0  0  0  0  0  0  0  0  0
   15.8573  -16.4886    0.0000 C   0  0  0  0  0  0  0  0  0  0  0  0
   14.7347  -15.7870    0.0000 C   0  0  0  0  0  0  0  0  0  0  0  0
   17.0501  -14.4539    0.0000 O   0  0  0  0  0  0  0  0  0  0  0  0
   15.8573  -13.7522    0.0000 C   0  0  0  0  0  0  0  0  0  0  0  0
   14.6645  -14.4539    0.0000 C   0  0  0  0  0  0  0  0  0  0  0  0
   15.8573  -12.3489    0.0000 O   0  0  0  0  0  0  0  0  0  0  0  0
   20.2777  -13.4716    0.0000 N   0  0  0  0  0  0  0  0  0  0  0  0
   21.4004  -12.7699    0.0000 C   0  0  0  0  0  0  0  0  0  0  0  0
   19.0148  -12.7699    0.0000 C   0  0  0  0  0  0  0  0  0  0  0  0
  1  2  2  0     0  0
  2  3  1  0     0  0
  3  4  2  0     0  0
  4  5  1  0     0  0
  5  6  2  0     0  0
  1  6  1  0     0  0
  7  8  1  0     0  0
  8  9  1  0     0  0
  5  9  1  0     0  0
  7 10  2  0     0  0
 10 11  1  0     0  0
 11 12  2  0     0  0
 12 13  1  0     0  0
  8 13  2  0     0  0
  9 14  1  0     0  0
 14 15  1  0     0  0
  9 16  1  0     0  0
 15 17  1  0     0  0
 16 18  1  0     0  0
 18 19  1  0     0  0
 20 21  1  0     0  0
 21 22  1  0     0  0
 21 23  2  0     0  0
 16 20  1  1     0  0
 24 25  1  0     0  0
 24 26  1  0     0  0
 15 24  1  6     0  0
M  END
