 
 
 
 39 43  0  0  0  0  0  0  0  0999 V2000
   24.5096  -27.2001    0.0000 C   0  0  0  0  0  0  0  0  0  0  0  0
   24.5096  -28.6044    0.0000 C   0  0  0  0  0  0  0  0  0  0  0  0
   23.3160  -29.3065    0.0000 C   0  0  0  0  0  0  0  0  0  0  0  0
   22.0522  -28.6044    0.0000 C   0  0  0  0  0  0  0  0  0  0  0  0
   22.0522  -27.2001    0.0000 C   0  0  0  0  0  0  0  0  0  0  0  0
   23.3160  -26.4980    0.0000 C   0  0  0  0  0  0  0  0  0  0  0  0
   25.7032  -26.4980    0.0000 F   0  0  0  0  0  0  0  0  0  0  0  0
   20.8586  -29.3065    0.0000 N   0  0  0  0  0  0  0  0  0  0  0  0
   19.6650  -28.6044    0.0000 C   0  0  0  0  0  0  0  0  0  0  0  0
   18.4714  -29.3065    0.0000 C   0  0  0  0  0  0  0  0  0  0  0  0
   17.2777  -28.6044    0.0000 C   0  0  0  0  0  0  0  0  0  0  0  0
   16.0841  -29.3065    0.0000 N   0  0  0  0  0  0  0  0  0  0  0  0
   17.2777  -27.2001    0.0000 O   0  0  0  0  0  0  0  0  0  0  0  0
   19.6650  -27.2001    0.0000 O   0  0  0  0  0  0  0  0  0  0  0  0
   14.8905  -28.6044    0.0000 C   0  0  0  0  0  0  0  0  0  0  0  0
   13.6969  -29.3065    0.0000 C   0  0  0  0  0  0  0  0  0  0  0  0
   12.4331  -28.6044    0.0000 C   0  0  0  0  0  0  0  0  0  0  0  0
   12.4331  -27.2001    0.0000 C   0  0  0  0  0  0  0  0  0  0  0  0
   13.6267  -26.4980    0.0000 C   0  0  0  0  0  0  0  0  0  0  0  0
   14.8905  -27.2001    0.0000 C   0  0  0  0  0  0  0  0  0  0  0  0
   11.2395  -26.4980    0.0000 O   0  0  0  0  0  0  0  0  0  0  0  0
   19.1735  -30.5001    0.0000 C   0  0  0  0  0  0  0  0  0  0  0  0
   17.7692  -30.5001    0.0000 C   0  0  0  0  0  0  0  0  0  0  0  0
   11.2395  -25.0980    0.0000 C   0  0  0  0  0  0  0  0  0  0  0  0
   12.4602  -24.3929    0.0000 C   0  0  0  0  0  0  0  0  0  0  0  0
   12.4599  -22.9929    0.0000 C   0  0  0  0  0  0  0  0  0  0  0  0
   11.2473  -22.2931    0.0000 N   0  0  0  0  0  0  0  0  0  0  0  0
   10.0266  -22.9983    0.0000 C   0  0  0  0  0  0  0  0  0  0  0  0
   10.0269  -24.3983    0.0000 C   0  0  0  0  0  0  0  0  0  0  0  0
   13.6728  -25.0926    0.0000 C   0  0  0  0  0  0  0  0  0  0  0  0
   14.8851  -24.3923    0.0000 C   0  0  0  0  0  0  0  0  0  0  0  0
   14.8848  -22.9923    0.0000 C   0  0  0  0  0  0  0  0  0  0  0  0
   13.6722  -22.2926    0.0000 C   0  0  0  0  0  0  0  0  0  0  0  0
   16.1301  -22.2735    0.0000 O   0  0  0  0  0  0  0  0  0  0  0  0
   17.3140  -22.9572    0.0000 C   0  0  0  0  0  0  0  0  0  0  0  0
   16.1018  -25.0946    0.0000 C   0  0  0  0  0  0  0  0  0  0  0  0
   17.3277  -24.3871    0.0000 N   0  0  0  0  0  0  0  0  0  0  0  0
   16.1017  -26.4600    0.0000 O   0  0  0  0  0  0  0  0  0  0  0  0
   18.5518  -25.0945    0.0000 C   0  0  0  0  0  0  0  0  0  0  0  0
  1  2  2  0     0  0
  2  3  1  0     0  0
  3  4  2  0     0  0
  4  5  1  0     0  0
  5  6  2  0     0  0
  1  6  1  0     0  0
  1  7  1  0     0  0
  4  8  1  0     0  0
  8  9  1  0     0  0
  9 10  1  0     0  0
 10 11  1  0     0  0
 11 12  1  0     0  0
 11 13  2  0     0  0
  9 14  2  0     0  0
 12 15  1  0     0  0
 15 16  2  0     0  0
 16 17  1  0     0  0
 17 18  2  0     0  0
 18 19  1  0     0  0
 19 20  2  0     0  0
 15 20  1  0     0  0
 18 21  1  0     0  0
 22 23  1  0     0  0
 23 10  1  0     0  0
 10 22  1  0     0  0
 21 24  1  0     0  0
 24 25  2  0     0  0
 25 26  1  0     0  0
 26 27  2  0     0  0
 27 28  1  0     0  0
 28 29  2  0     0  0
 24 29  1  0     0  0
 25 30  1  0     0  0
 30 31  2  0     0  0
 31 32  1  0     0  0
 32 33  2  0     0  0
 26 33  1  0     0  0
 32 34  1  0     0  0
 34 35  1  0     0  0
 31 36  1  0     0  0
 36 37  1  0     0  0
 36 38  2  0     0  0
 37 39  1  0     0  0
M  END
