 
 
 
 19 20  0  0  1  0  0  0  0  0999 V2000
   16.0028  -17.1289    0.0000 N   0  0  0  0  0  0  0  0  0  0  0  0
   17.2014  -17.8340    0.0000 C   0  0  0  0  0  0  0  0  0  0  0  0
   18.4000  -17.1289    0.0000 C   0  0  0  0  0  0  0  0  0  0  0  0
   18.4000  -15.7187    0.0000 C   0  0  0  0  0  0  0  0  0  0  0  0
   17.2014  -15.0842    0.0000 C   0  0  0  0  0  0  0  0  0  0  0  0
   16.0028  -15.7893    0.0000 C   0  0  0  0  0  0  0  0  0  0  0  0
   17.2014  -13.6741    0.0000 C   0  0  0  0  0  0  0  0  0  0  0  0
   14.7337  -17.8340    0.0000 C   0  0  0  0  0  0  0  0  0  0  0  0
   19.8101  -16.5649    0.0000 O   0  0  0  0  0  0  0  0  0  0  0  0
   20.5152  -17.7635    0.0000 C   0  0  0  0  0  0  0  0  0  0  0  0
   21.9253  -17.7635    0.0000 C   0  0  0  0  0  0  0  0  0  0  0  0
   22.6303  -16.5649    0.0000 C   0  0  0  0  0  0  0  0  0  0  0  0
   19.8101  -18.9621    0.0000 O   0  0  0  0  0  0  0  0  0  0  0  0
   19.5986  -15.0842    0.0000 C   0  0  0  0  0  0  0  0  0  0  0  0
   19.5986  -13.6741    0.0000 C   0  0  0  0  0  0  0  0  0  0  0  0
   20.7972  -15.7187    0.0000 C   0  0  0  0  0  0  0  0  0  0  0  0
   21.9958  -15.0138    0.0000 C   0  0  0  0  0  0  0  0  0  0  0  0
   21.9958  -13.6741    0.0000 C   0  0  0  0  0  0  0  0  0  0  0  0
   20.7972  -12.9690    0.0000 C   0  0  0  0  0  0  0  0  0  0  0  0
  1  2  1  0     0  0
  2  3  1  0     0  0
  3  4  1  0     0  0
  4  5  1  0     0  0
  5  6  1  0     0  0
  1  6  1  0     0  0
  5  7  1  6     0  0
  1  8  1  0     0  0
  4  9  1  6     0  0
  9 10  1  0     0  0
 10 11  1  0     0  0
 11 12  1  0     0  0
 10 13  2  0     0  0
 14 15  2  0     0  0
 14 16  1  0     0  0
 16 17  2  0     0  0
 17 18  1  0     0  0
 18 19  2  0     0  0
 15 19  1  0     0  0
  4 14  1  1     0  0
M  END
