 
     RDKit          2D

 56 63  0  0  1  0  0  0  0  0999 V2000
    6.9300  -16.1000    0.0000 C   0  0  0  0  0  0  0  0  0  0  0  0
    6.9300  -17.5000    0.0000 C   0  0  0  0  0  0  0  0  0  0  0  0
    8.1424  -18.2000    0.0000 C   0  0  0  0  0  0  0  0  0  0  0  0
    9.3549  -17.5000    0.0000 C   0  0  0  0  0  0  0  0  0  0  0  0
    9.3549  -16.1000    0.0000 C   0  0  0  0  0  0  0  0  0  0  0  0
    8.1424  -15.4000    0.0000 C   0  0  0  0  0  0  0  0  0  0  0  0
   10.6864  -17.9326    0.0000 C   0  0  0  0  0  0  0  0  0  0  0  0
   11.5093  -16.8000    0.0000 N   0  0  0  0  0  0  0  0  0  0  0  0
   10.6864  -15.6674    0.0000 N   0  0  0  0  0  0  0  0  0  0  0  0
    8.1424  -14.0002    0.0000 C   0  0  0  0  0  0  0  0  0  0  0  0
    6.9132  -13.2903    0.0000 O   0  0  0  0  0  0  0  0  0  0  0  0
    9.3380  -13.3098    0.0000 N   0  0  0  0  0  0  0  0  0  0  0  0
   12.8800  -16.8000    0.0000 C   0  0  0  0  0  0  0  0  0  0  0  0
   13.5800  -18.0124    0.0000 C   0  0  0  0  0  0  0  0  0  0  0  0
   14.9800  -18.0124    0.0000 C   0  0  0  0  0  0  0  0  0  0  0  0
   15.6800  -16.8000    0.0000 C   0  0  0  0  0  0  0  0  0  0  0  0
   14.9800  -15.5876    0.0000 C   0  0  0  0  0  0  0  0  0  0  0  0
   13.5800  -15.5876    0.0000 C   0  0  0  0  0  0  0  0  0  0  0  0
   17.0800  -16.8000    0.0000 C   0  0  0  0  0  0  0  0  0  0  0  0
   17.7800  -18.0124    0.0000 C   0  0  0  0  0  0  0  0  0  0  0  0
   19.1800  -18.0124    0.0000 N   0  0  0  0  0  0  0  0  0  0  0  0
   19.8800  -16.8000    0.0000 C   0  0  0  0  0  0  0  0  0  0  0  0
   19.1800  -15.5876    0.0000 C   0  0  0  0  0  0  0  0  0  0  0  0
   17.7800  -15.5876    0.0000 C   0  0  0  0  0  0  0  0  0  0  0  0
   12.1800  -24.5700    0.0000 C   0  0  0  0  0  0  0  0  0  0  0  0
   12.1800  -25.9700    0.0000 C   0  0  0  0  0  0  0  0  0  0  0  0
   13.3924  -26.6700    0.0000 C   0  0  0  0  0  0  0  0  0  0  0  0
   14.6049  -25.9700    0.0000 C   0  0  0  0  0  0  0  0  0  0  0  0
   14.6049  -24.5700    0.0000 C   0  0  0  0  0  0  0  0  0  0  0  0
   13.3924  -23.8700    0.0000 C   0  0  0  0  0  0  0  0  0  0  0  0
   15.8173  -26.6700    0.0000 C   0  0  0  0  0  0  0  0  0  0  0  0
   17.0297  -25.9700    0.0000 C   0  0  0  0  0  0  0  0  0  0  0  0
   17.0297  -24.5700    0.0000 C   0  0  0  0  0  0  0  0  0  0  0  0
   15.8173  -23.8700    0.0000 C   0  0  0  0  0  0  0  0  0  0  0  0
   18.2422  -23.8700    0.0000 C   0  0  0  0  0  0  0  0  0  0  0  0
   18.2422  -22.4700    0.0000 C   0  0  0  0  0  0  0  0  0  0  0  0
   17.0297  -21.7700    0.0000 C   0  0  0  0  0  0  0  0  0  0  0  0
   15.8173  -22.4700    0.0000 C   0  0  0  0  0  0  0  0  0  0  0  0
   20.6670  -23.8700    0.0000 C   0  0  0  0  0  0  0  0  0  0  0  0
   20.6670  -22.4700    0.0000 C   0  0  0  0  0  0  0  0  0  0  0  0
   19.4546  -21.7700    0.0000 C   0  0  0  0  0  0  0  0  0  0  0  0
   19.4546  -20.3700    0.0000 C   0  0  0  0  0  0  0  0  0  0  0  0
   10.9676  -26.6700    0.0000 O   0  0  0  0  0  0  0  0  0  0  0  0
    9.7721  -25.9796    0.0000 C   0  0  0  0  0  0  0  0  0  0  0  0
    8.5847  -26.6651    0.0000 C   0  0  0  0  0  0  0  0  0  0  0  0
    9.7720  -24.5703    0.0000 O   0  0  0  0  0  0  0  0  0  0  0  0
   14.6049  -23.1700    0.0000 C   0  0  0  0  0  0  0  0  0  0  0  0
   15.8173  -25.2700    0.0000 H   0  0  0  0  0  0  0  0  0  0  0  0
   17.0297  -23.1700    0.0000 H   0  0  0  0  0  0  0  0  0  0  0  0
   18.2422  -21.0700    0.0000 C   0  0  0  0  0  0  0  0  0  0  0  0
   18.2422  -25.2700    0.0000 H   0  0  0  0  0  0  0  0  0  0  0  0
   20.6711  -19.6677    0.0000 C   0  0  0  0  0  0  0  0  0  0  0  0
   20.6711  -18.2677    0.0000 C   0  0  0  0  0  0  0  0  0  0  0  0
   19.4586  -17.5677    0.0000 C   0  0  0  0  0  0  0  0  0  0  0  0
   18.2422  -18.2700    0.0000 N   0  0  0  0  0  0  0  0  0  0  0  0
   18.2422  -19.6700    0.0000 C   0  0  0  0  0  0  0  0  0  0  0  0
  1  2  1  0
  2  3  2  0
  3  4  1  0
  4  5  1  0
  5  6  1  0
  1  6  2  0
  4  7  2  0
  7  8  1  0
  8  9  1  0
  5  9  2  0
  6 10  1  0
 10 11  2  0
 10 12  1  0
  8 13  1  0
 13 14  2  0
 14 15  1  0
 15 16  2  0
 16 17  1  0
 17 18  2  0
 13 18  1  0
 19 16  1  6
 19 20  1  0
 20 21  1  0
 21 22  1  0
 22 23  1  0
 23 24  1  0
 19 24  1  0
 25 26  1  0
 26 27  1  0
 27 28  1  0
 28 29  1  0
 29 30  1  0
 25 30  1  0
 28 31  2  0
 31 32  1  0
 32 33  1  0
 33 34  1  0
 29 34  1  0
 33 35  1  0
 35 36  1  0
 36 37  1  0
 37 38  1  0
 34 38  1  0
 35 39  1  0
 39 40  1  0
 40 41  2  0
 36 41  1  0
 41 42  1  0
 26 43  1  1
 43 44  1  0
 44 45  1  0
 44 46  2  0
 29 47  1  1
 34 48  1  6
 33 49  1  1
 36 50  1  1
 35 51  1  6
 42 52  2  0
 52 53  1  0
 53 54  2  0
 54 55  1  0
 55 56  2  0
 42 56  1  0
M  END
