 
 
 
 25 28  0  0  0  0  0  0  0  0999 V2000
   15.1200  -11.0600    0.0000 C   0  0  0  0  0  0  0  0  0  0  0  0
   15.1200  -12.4600    0.0000 C   0  0  0  0  0  0  0  0  0  0  0  0
   16.3324  -13.1600    0.0000 C   0  0  0  0  0  0  0  0  0  0  0  0
   17.5449  -12.4600    0.0000 C   0  0  0  0  0  0  0  0  0  0  0  0
   17.5449  -11.0600    0.0000 C   0  0  0  0  0  0  0  0  0  0  0  0
   16.3324  -10.3600    0.0000 N   0  0  0  0  0  0  0  0  0  0  0  0
   18.8764  -12.8926    0.0000 C   0  0  0  0  0  0  0  0  0  0  0  0
   19.6993  -11.7600    0.0000 C   0  0  0  0  0  0  0  0  0  0  0  0
   18.8764  -10.6274    0.0000 N   0  0  0  0  0  0  0  0  0  0  0  0
   21.0700  -11.7600    0.0000 C   0  0  0  0  0  0  0  0  0  0  0  0
   21.7700  -12.9724    0.0000 C   0  0  0  0  0  0  0  0  0  0  0  0
   23.1700  -12.9724    0.0000 C   0  0  0  0  0  0  0  0  0  0  0  0
   23.8700  -11.7600    0.0000 C   0  0  0  0  0  0  0  0  0  0  0  0
   23.1700  -10.5476    0.0000 C   0  0  0  0  0  0  0  0  0  0  0  0
   21.7700  -10.5476    0.0000 C   0  0  0  0  0  0  0  0  0  0  0  0
   13.9076  -13.1600    0.0000 N   0  0  0  0  0  0  0  0  0  0  0  0
   12.7121  -12.4696    0.0000 C   0  0  0  0  0  0  0  0  0  0  0  0
   11.5247  -13.1551    0.0000 C   0  0  0  0  0  0  0  0  0  0  0  0
   12.7120  -11.0603    0.0000 O   0  0  0  0  0  0  0  0  0  0  0  0
   10.2016  -12.7834    0.0000 N   0  0  0  0  0  0  0  0  0  0  0  0
    9.4360  -13.9255    0.0000 N   0  0  0  0  0  0  0  0  0  0  0  0
   10.2855  -15.0065    0.0000 C   0  0  0  0  0  0  0  0  0  0  0  0
   11.5761  -14.5326    0.0000 C   0  0  0  0  0  0  0  0  0  0  0  0
   12.7329  -15.3088    0.0000 C   0  0  0  0  0  0  0  0  0  0  0  0
    9.9106  -16.3276    0.0000 C   0  0  0  0  0  0  0  0  0  0  0  0
  1  2  2  0     0  0
  2  3  1  0     0  0
  3  4  2  0     0  0
  4  5  1  0     0  0
  5  6  2  0     0  0
  1  6  1  0     0  0
  4  7  1  0     0  0
  7  8  2  0     0  0
  8  9  1  0     0  0
  5  9  1  0     0  0
  8 10  1  0     0  0
 10 11  2  0     0  0
 11 12  1  0     0  0
 12 13  2  0     0  0
 13 14  1  0     0  0
 14 15  2  0     0  0
 10 15  1  0     0  0
  2 16  1  0     0  0
 16 17  1  0     0  0
 17 18  1  0     0  0
 17 19  2  0     0  0
 18 20  2  0     0  0
 20 21  1  0     0  0
 21 22  1  0     0  0
 22 23  2  0     0  0
 18 23  1  0     0  0
 23 24  1  0     0  0
 22 25  1  0     0  0
M  END
