 
 
 
 35 37  0  0  0  0  0  0  0  0999 V2000
   14.9800  -15.1900    0.0000 C   0  0  0  0  0  0  0  0  0  0  0  0
   14.9800  -16.5900    0.0000 C   0  0  0  0  0  0  0  0  0  0  0  0
   16.1700  -17.2900    0.0000 C   0  0  0  0  0  0  0  0  0  0  0  0
   17.3600  -16.5900    0.0000 C   0  0  0  0  0  0  0  0  0  0  0  0
   17.3600  -15.1900    0.0000 C   0  0  0  0  0  0  0  0  0  0  0  0
   16.1700  -14.4900    0.0000 C   0  0  0  0  0  0  0  0  0  0  0  0
   18.6200  -14.4900    0.0000 C   0  0  0  0  0  0  0  0  0  0  0  0
   19.8100  -15.1900    0.0000 C   0  0  0  0  0  0  0  0  0  0  0  0
   19.8100  -16.5900    0.0000 C   0  0  0  0  0  0  0  0  0  0  0  0
   21.0700  -17.2900    0.0000 C   0  0  0  0  0  0  0  0  0  0  0  0
   22.2600  -16.5900    0.0000 C   0  0  0  0  0  0  0  0  0  0  0  0
   22.2600  -15.1900    0.0000 C   0  0  0  0  0  0  0  0  0  0  0  0
   21.0700  -14.4900    0.0000 C   0  0  0  0  0  0  0  0  0  0  0  0
   19.3200  -13.2300    0.0000 C   0  0  0  0  0  0  0  0  0  0  0  0
   17.9200  -13.2300    0.0000 C   0  0  0  0  0  0  0  0  0  0  0  0
   13.7200  -17.2900    0.0000 O   0  0  0  0  0  0  0  0  0  0  0  0
   12.5300  -16.5900    0.0000 C   0  0  0  0  0  0  0  0  0  0  0  0
   11.3400  -17.2900    0.0000 C   0  0  0  0  0  0  0  0  0  0  0  0
   10.1500  -16.5900    0.0000 Cl  0  0  0  0  0  0  0  0  0  0  0  0
   23.4500  -17.2900    0.0000 O   0  0  0  0  0  0  0  0  0  0  0  0
   24.6400  -16.5900    0.0000 C   0  0  0  0  0  0  0  0  0  0  0  0
   25.9000  -17.2900    0.0000 C   0  0  0  0  0  0  0  0  0  0  0  0
   13.7900  -14.4900    0.0000 Cl  0  0  0  0  0  0  0  0  0  0  0  0
   25.9000  -18.6900    0.0000 C   0  0  0  0  0  0  0  0  0  0  0  0
   27.1600  -19.3900    0.0000 C   0  0  0  0  0  0  0  0  0  0  0  0
   28.3500  -18.6200    0.0000 N   0  0  0  0  0  0  0  0  0  0  0  0
   28.3500  -17.2200    0.0000 C   0  0  0  0  0  0  0  0  0  0  0  0
   27.0900  -16.5900    0.0000 N   0  0  0  0  0  0  0  0  0  0  0  0
   29.5400  -16.5200    0.0000 N   0  0  0  0  0  0  0  0  0  0  0  0
   30.8000  -17.2200    0.0000 S   0  0  0  0  0  0  0  0  0  0  0  0
   31.9900  -17.9200    0.0000 C   0  0  0  0  0  0  0  0  0  0  0  0
   30.1000  -18.4100    0.0000 O   0  0  0  0  0  0  0  0  0  0  0  0
   31.5000  -15.9600    0.0000 O   0  0  0  0  0  0  0  0  0  0  0  0
   16.1700  -18.6900    0.0000 C   0  0  0  0  0  0  0  0  0  0  0  0
   16.1700  -20.0900    0.0000 N   0  0  0  0  0  0  0  0  0  0  0  0
  1  2  2  0     0  0
  2  3  1  0     0  0
  3  4  2  0     0  0
  4  5  1  0     0  0
  5  6  2  0     0  0
  1  6  1  0     0  0
  5  7  1  0     0  0
  7  8  1  0     0  0
  8  9  2  0     0  0
  9 10  1  0     0  0
 10 11  2  0     0  0
 11 12  1  0     0  0
 12 13  2  0     0  0
  8 13  1  0     0  0
  7 14  1  0     0  0
  7 15  1  0     0  0
  2 16  1  0     0  0
 16 17  1  0     0  0
 17 18  1  0     0  0
 18 19  1  0     0  0
 11 20  1  0     0  0
 20 21  1  0     0  0
 21 22  1  0     0  0
  1 23  1  0     0  0
 22 24  2  0     0  0
 24 25  1  0     0  0
 25 26  2  0     0  0
 26 27  1  0     0  0
 27 28  2  0     0  0
 22 28  1  0     0  0
 27 29  1  0     0  0
 29 30  1  0     0  0
 30 31  1  0     0  0
 30 32  2  0     0  0
 30 33  2  0     0  0
  3 34  1  0     0  0
 34 35  3  0     0  0
M  END
