 
 
 
 43 47  0  0  0  0  0  0  0  0999 V2000
   14.3651  -11.4888    0.0000 C   0  0  0  0  0  0  0  0  0  0  0  0
   14.3651  -12.8897    0.0000 C   0  0  0  0  0  0  0  0  0  0  0  0
   15.5783  -13.5901    0.0000 C   0  0  0  0  0  0  0  0  0  0  0  0
   16.7915  -12.8897    0.0000 C   0  0  0  0  0  0  0  0  0  0  0  0
   16.7915  -11.4888    0.0000 N   0  0  0  0  0  0  0  0  0  0  0  0
   15.5783  -10.7883    0.0000 C   0  0  0  0  0  0  0  0  0  0  0  0
   15.5783   -9.3876    0.0000 N   0  0  0  0  0  0  0  0  0  0  0  0
   15.5783  -14.9908    0.0000 C   0  0  0  0  0  0  0  0  0  0  0  0
   13.1519  -13.5901    0.0000 C   0  0  0  0  0  0  0  0  0  0  0  0
   18.0234  -13.6011    0.0000 C   0  0  0  0  0  0  0  0  0  0  0  0
   18.0231  -14.9909    0.0000 C   0  0  0  0  0  0  0  0  0  0  0  0
   19.2362  -15.6916    0.0000 C   0  0  0  0  0  0  0  0  0  0  0  0
   20.4496  -14.9915    0.0000 C   0  0  0  0  0  0  0  0  0  0  0  0
   20.4499  -13.6017    0.0000 C   0  0  0  0  0  0  0  0  0  0  0  0
   19.2368  -12.9010    0.0000 C   0  0  0  0  0  0  0  0  0  0  0  0
   21.6626  -15.6921    0.0000 C   0  0  0  0  0  0  0  0  0  0  0  0
   22.8759  -14.9920    0.0000 N   0  0  0  0  0  0  0  0  0  0  0  0
   22.8762  -13.6022    0.0000 C   0  0  0  0  0  0  0  0  0  0  0  0
   21.6633  -12.9016    0.0000 N   0  0  0  0  0  0  0  0  0  0  0  0
   19.2369  -11.4892    0.0000 F   0  0  0  0  0  0  0  0  0  0  0  0
   16.7980  -15.6979    0.0000 Cl  0  0  0  0  0  0  0  0  0  0  0  0
   24.1205  -12.8840    0.0000 O   0  0  0  0  0  0  0  0  0  0  0  0
   24.1205  -11.4832    0.0000 C   0  0  0  0  0  0  0  0  0  0  0  0
   22.8954  -10.7757    0.0000 C   0  0  0  0  0  0  0  0  0  0  0  0
   22.9328   -9.3876    0.0000 N   0  0  0  0  0  0  0  0  0  0  0  0
   21.6253   -8.9254    0.0000 C   0  0  0  0  0  0  0  0  0  0  0  0
   20.7817  -10.0260    0.0000 C   0  0  0  0  0  0  0  0  0  0  0  0
   21.5678  -11.1685    0.0000 C   0  0  0  0  0  0  0  0  0  0  0  0
   24.0722   -8.6044    0.0000 C   0  0  0  0  0  0  0  0  0  0  0  0
   21.6623  -17.0922    0.0000 N   0  0  0  0  0  0  0  0  0  0  0  0
   20.4395  -17.7979    0.0000 C   0  0  0  0  0  0  0  0  0  0  0  0
   20.4393  -19.1988    0.0000 C   0  0  0  0  0  0  0  0  0  0  0  0
   21.6522  -19.8995    0.0000 N   0  0  0  0  0  0  0  0  0  0  0  0
   22.8750  -19.1939    0.0000 C   0  0  0  0  0  0  0  0  0  0  0  0
   22.8753  -17.7930    0.0000 C   0  0  0  0  0  0  0  0  0  0  0  0
   24.0624  -17.1075    0.0000 C   0  0  0  0  0  0  0  0  0  0  0  0
   21.6520  -21.2950    0.0000 C   0  0  0  0  0  0  0  0  0  0  0  0
   20.4370  -21.9962    0.0000 O   0  0  0  0  0  0  0  0  0  0  0  0
   22.8634  -21.9948    0.0000 C   0  0  0  0  0  0  0  0  0  0  0  0
   22.8634  -23.3957    0.0000 C   0  0  0  0  0  0  0  0  0  0  0  0
   15.5783  -16.3917    0.0000 F   0  0  0  0  0  0  0  0  0  0  0  0
   16.7915  -14.2903    0.0000 F   0  0  0  0  0  0  0  0  0  0  0  0
   14.3651  -15.6912    0.0000 F   0  0  0  0  0  0  0  0  0  0  0  0
  1  2  2  0     0  0
  2  3  1  0     0  0
  3  4  2  0     0  0
  4  5  1  0     0  0
  5  6  2  0     0  0
  1  6  1  0     0  0
  6  7  1  0     0  0
  3  8  1  0     0  0
  2  9  1  0     0  0
  4 10  1  0     0  0
 10 11  1  0     0  0
 11 12  2  0     0  0
 12 13  1  0     0  0
 13 14  2  0     0  0
 14 15  1  0     0  0
 10 15  2  0     0  0
 13 16  1  0     0  0
 16 17  2  0     0  0
 17 18  1  0     0  0
 18 19  2  0     0  0
 14 19  1  0     0  0
 15 20  1  0     0  0
 11 21  1  0     0  0
 18 22  1  0     0  0
 22 23  1  0     0  0
 23 24  1  0     0  0
 24 25  1  0     0  0
 25 26  1  0     0  0
 26 27  1  0     0  0
 27 28  1  0     0  0
 24 28  1  0     0  0
 25 29  1  0     0  0
 16 30  1  0     0  0
 30 31  1  0     0  0
 31 32  1  0     0  0
 32 33  1  0     0  0
 33 34  1  0     0  0
 34 35  1  0     0  0
 30 35  1  0     0  0
 35 36  1  0     0  0
 33 37  1  0     0  0
 37 38  2  0     0  0
 37 39  1  0     0  0
 39 40  2  0     0  0
  8 41  1  0     0  0
  8 42  1  0     0  0
  8 43  1  0     0  0
M  END
