 
 
 
 19 20  0  0  0  0  0  0  0  0999 V2000
   19.9566  -15.1250    0.0000 C   0  0  0  0  0  0  0  0  0  0  0  0
   19.9566  -16.5254    0.0000 C   0  0  0  0  0  0  0  0  0  0  0  0
   21.1470  -17.2257    0.0000 C   0  0  0  0  0  0  0  0  0  0  0  0
   18.7662  -17.2257    0.0000 C   0  0  0  0  0  0  0  0  0  0  0  0
   17.5758  -16.5254    0.0000 C   0  0  0  0  0  0  0  0  0  0  0  0
   17.5758  -15.1250    0.0000 C   0  0  0  0  0  0  0  0  0  0  0  0
   16.3854  -17.2257    0.0000 N   0  0  0  0  0  0  0  0  0  0  0  0
   16.3854  -18.9062    0.0000 C   0  0  0  0  0  0  0  0  0  0  0  0
   15.1250  -16.5254    0.0000 C   0  0  0  0  0  0  0  0  0  0  0  0
   13.9346  -17.2257    0.0000 C   0  0  0  0  0  0  0  0  0  0  0  0
   21.2870  -18.5561    0.0000 C   0  0  0  0  0  0  0  0  0  0  0  0
   22.6875  -18.8362    0.0000 C   0  0  0  0  0  0  0  0  0  0  0  0
   23.3877  -17.6458    0.0000 C   0  0  0  0  0  0  0  0  0  0  0  0
   22.4074  -16.6655    0.0000 S   0  0  0  0  0  0  0  0  0  0  0  0
   21.0769  -14.2847    0.0000 S   0  0  0  0  0  0  0  0  0  0  0  0
   20.6568  -13.0243    0.0000 C   0  0  0  0  0  0  0  0  0  0  0  0
   19.2563  -13.0243    0.0000 C   0  0  0  0  0  0  0  0  0  0  0  0
   18.8362  -14.2847    0.0000 C   0  0  0  0  0  0  0  0  0  0  0  0
   15.1730  -19.6062    0.0000 C   0  0  0  0  0  0  0  0  0  0  0  0
  1  2  1  0     0  0
  2  3  1  0     0  0
  2  4  2  0     0  0
  4  5  1  0     0  0
  5  6  1  0     0  0
  5  7  1  0     0  0
  7  8  1  0     0  0
  7  9  1  0     0  0
  9 10  1  0     0  0
  3 11  2  0     0  0
 11 12  1  0     0  0
 12 13  2  0     0  0
 13 14  1  0     0  0
  3 14  1  0     0  0
  1 15  1  0     0  0
 15 16  1  0     0  0
 16 17  2  0     0  0
 17 18  1  0     0  0
  1 18  2  0     0  0
  8 19  1  0     0  0
M  END
