 
 
 
 27 31  0  0  1  0  0  0  0  0999 V2000
   14.9528  -16.4972    0.0000 C   0  0  2  0  0  0  0  0  0  0  0  0
   14.9528  -15.1634    0.0000 C   0  0  0  0  0  0  0  0  0  0  0  0
   16.1462  -17.1992    0.0000 C   0  0  2  0  0  0  0  0  0  0  0  0
   16.1462  -15.8654    0.0000 C   0  0  0  0  0  0  0  0  0  0  0  0
   13.8296  -14.5316    0.0000 C   0  0  0  0  0  0  0  0  0  0  0  0
   16.1462  -14.5316    0.0000 C   0  0  0  0  0  0  0  0  0  0  0  0
   17.2694  -16.4972    0.0000 C   0  0  1  0  0  0  0  0  0  0  0  0
   18.3926  -15.8654    0.0000 C   0  0  0  0  0  0  0  0  0  0  0  0
   13.8296  -13.1978    0.0000 C   0  0  0  0  0  0  0  0  0  0  0  0
   17.2694  -15.2336    0.0000 C   0  0  0  0  0  0  0  0  0  0  0  0
   16.1462  -13.1978    0.0000 C   0  0  0  0  0  0  0  0  0  0  0  0
   18.3926  -17.1992    0.0000 N   0  0  3  0  0  0  0  0  0  0  0  0
   15.0230  -12.5660    0.0000 C   0  0  0  0  0  0  0  0  0  0  0  0
   12.6362  -12.5660    0.0000 O   0  0  0  0  0  0  0  0  0  0  0  0
   19.6562  -16.4972    0.0000 C   0  0  0  0  0  0  0  0  0  0  0  0
   20.8496  -17.1992    0.0000 C   0  0  0  0  0  0  0  0  0  0  0  0
   22.1132  -16.4972    0.0000 C   0  0  0  0  0  0  0  0  0  0  0  0
   23.3066  -17.1992    0.0000 C   0  0  0  0  0  0  0  0  0  0  0  0
   24.5702  -16.4972    0.0000 C   0  0  0  0  0  0  0  0  0  0  0  0
   24.5702  -15.0932    0.0000 C   0  0  0  0  0  0  0  0  0  0  0  0
   23.3066  -14.3210    0.0000 C   0  0  0  0  0  0  0  0  0  0  0  0
   22.1132  -15.0932    0.0000 C   0  0  0  0  0  0  0  0  0  0  0  0
   13.7594  -17.1992    0.0000 C   0  0  0  0  0  0  0  0  0  0  0  0
   13.7594  -18.6032    0.0000 C   0  0  0  0  0  0  0  0  0  0  0  0
   14.9528  -19.3052    0.0000 C   0  0  0  0  0  0  0  0  0  0  0  0
   16.1462  -18.6032    0.0000 C   0  0  0  0  0  0  0  0  0  0  0  0
   17.1992  -18.1820    0.0000 H   0  0  0  0  0  0  0  0  0  0  0  0
  1  2  1  0     0  0
  1  3  1  0     0  0
  1  4  1  1     0  0
  2  5  2  0     0  0
  2  6  1  0     0  0
  3  7  1  0     0  0
  4  8  1  0     0  0
  5  9  1  0     0  0
  6 10  1  0     0  0
  6 11  2  0     0  0
  7 12  1  1     0  0
  9 13  2  0     0  0
  9 14  1  0     0  0
  7 10  1  0     0  0
  8 12  1  0     0  0
 11 13  1  0     0  0
 12 15  1  0     0  0
 15 16  1  0     0  0
 16 17  1  0     0  0
 17 18  2  0     0  0
 18 19  1  0     0  0
 19 20  2  0     0  0
 20 21  1  0     0  0
 21 22  2  0     0  0
 17 22  1  0     0  0
  1 23  1  0     0  0
 23 24  1  0     0  0
 24 25  1  0     0  0
 25 26  1  0     0  0
  3 26  1  0     0  0
  3 27  1  1     0  0
M  END
