 
 
 
 27 26  0  0  0  0  0  0  0  0999 V2000
   30.4500  -13.3700    0.0000 C   0  0  0  0  0  0  0  0  0  0  0  0
   31.6624  -14.0700    0.0000 C   0  0  0  0  0  0  0  0  0  0  0  0
   29.2376  -14.0700    0.0000 C   0  0  0  0  0  0  0  0  0  0  0  0
   28.0421  -13.3796    0.0000 C   0  0  0  0  0  0  0  0  0  0  0  0
   26.8547  -14.0651    0.0000 C   0  0  0  0  0  0  0  0  0  0  0  0
   25.6635  -13.3771    0.0000 C   0  0  0  0  0  0  0  0  0  0  0  0
   24.4740  -14.0638    0.0000 C   0  0  0  0  0  0  0  0  0  0  0  0
   23.2839  -13.3765    0.0000 C   0  0  0  0  0  0  0  0  0  0  0  0
   22.0938  -14.0635    0.0000 C   0  0  0  0  0  0  0  0  0  0  0  0
   20.8814  -14.7635    0.0000 C   0  0  0  0  0  0  0  0  0  0  0  0
   22.7938  -15.2759    0.0000 F   0  0  0  0  0  0  0  0  0  0  0  0
   21.3938  -12.8510    0.0000 F   0  0  0  0  0  0  0  0  0  0  0  0
   19.6689  -15.4635    0.0000 C   0  0  0  0  0  0  0  0  0  0  0  0
   21.5814  -15.9759    0.0000 F   0  0  0  0  0  0  0  0  0  0  0  0
   20.1814  -13.5510    0.0000 F   0  0  0  0  0  0  0  0  0  0  0  0
   18.4565  -16.1635    0.0000 C   0  0  0  0  0  0  0  0  0  0  0  0
   20.3689  -16.6759    0.0000 F   0  0  0  0  0  0  0  0  0  0  0  0
   18.9689  -14.2510    0.0000 F   0  0  0  0  0  0  0  0  0  0  0  0
   17.2441  -16.8635    0.0000 C   0  0  0  0  0  0  0  0  0  0  0  0
   17.7565  -14.9510    0.0000 F   0  0  0  0  0  0  0  0  0  0  0  0
   19.1565  -17.3759    0.0000 F   0  0  0  0  0  0  0  0  0  0  0  0
   16.0316  -17.5635    0.0000 C   0  0  0  0  0  0  0  0  0  0  0  0
   16.5441  -15.6510    0.0000 F   0  0  0  0  0  0  0  0  0  0  0  0
   17.9441  -18.0759    0.0000 F   0  0  0  0  0  0  0  0  0  0  0  0
   14.8192  -18.2635    0.0000 F   0  0  0  0  0  0  0  0  0  0  0  0
   15.3316  -16.3510    0.0000 F   0  0  0  0  0  0  0  0  0  0  0  0
   16.7316  -18.7759    0.0000 F   0  0  0  0  0  0  0  0  0  0  0  0
  1  2  1  0     0  0
  1  3  1  0     0  0
  3  4  1  0     0  0
  4  5  1  0     0  0
  5  6  1  0     0  0
  6  7  1  0     0  0
  7  8  1  0     0  0
  8  9  1  0     0  0
  9 10  1  0     0  0
  9 11  1  0     0  0
  9 12  1  0     0  0
 10 13  1  0     0  0
 10 14  1  0     0  0
 10 15  1  0     0  0
 13 16  1  0     0  0
 13 17  1  0     0  0
 13 18  1  0     0  0
 16 19  1  0     0  0
 16 20  1  0     0  0
 16 21  1  0     0  0
 19 22  1  0     0  0
 19 23  1  0     0  0
 19 24  1  0     0  0
 22 25  1  0     0  0
 22 26  1  0     0  0
 22 27  1  0     0  0
M  END
