 
 
 
103103  0  0  1  0  0  0  0  0999 V2000
    5.2500   -9.1700    0.0000 C   0  0  0  0  0  0  0  0  0  0  0  0
    6.4400   -9.8700    0.0000 C   0  0  0  0  0  0  0  0  0  0  0  0
    4.0600   -9.8700    0.0000 O   0  0  0  0  0  0  0  0  0  0  0  0
    5.2500   -7.7700    0.0000 O   0  0  0  0  0  0  0  0  0  0  0  0
    7.6300   -9.1700    0.0000 N   0  0  0  0  0  0  0  0  0  0  0  0
    8.8200   -9.8700    0.0000 C   0  0  0  0  0  0  0  0  0  0  0  0
   10.0100   -9.1700    0.0000 N   0  0  0  0  0  0  0  0  0  0  0  0
    8.8200  -11.2700    0.0000 O   0  0  0  0  0  0  0  0  0  0  0  0
    6.4400  -11.2700    0.0000 C   0  0  0  0  0  0  0  0  0  0  0  0
    5.2500  -11.9700    0.0000 C   0  0  0  0  0  0  0  0  0  0  0  0
    5.2500  -13.3700    0.0000 C   0  0  0  0  0  0  0  0  0  0  0  0
    4.0600  -14.0700    0.0000 O   0  0  0  0  0  0  0  0  0  0  0  0
    6.4400  -14.0700    0.0000 O   0  0  0  0  0  0  0  0  0  0  0  0
   11.2000   -9.8700    0.0000 C   0  0  0  0  0  0  0  0  0  0  0  0
   12.3900   -9.1700    0.0000 C   0  0  0  0  0  0  0  0  0  0  0  0
   13.5800   -9.8700    0.0000 O   0  0  0  0  0  0  0  0  0  0  0  0
   12.3900   -7.7700    0.0000 O   0  0  0  0  0  0  0  0  0  0  0  0
   11.2000  -11.2700    0.0000 C   0  0  0  0  0  0  0  0  0  0  0  0
   12.3900  -11.9700    0.0000 C   0  0  0  0  0  0  0  0  0  0  0  0
   12.3900  -13.3700    0.0000 C   0  0  0  0  0  0  0  0  0  0  0  0
   11.2000  -14.0700    0.0000 O   0  0  0  0  0  0  0  0  0  0  0  0
   13.5800  -14.0700    0.0000 N   0  0  0  0  0  0  0  0  0  0  0  0
   13.5800  -15.4700    0.0000 C   0  0  0  0  0  0  0  0  0  0  0  0
   12.3900  -16.1700    0.0000 C   0  0  0  0  0  0  0  0  0  0  0  0
   11.2000  -15.4700    0.0000 O   0  0  0  0  0  0  0  0  0  0  0  0
   12.3900  -17.5700    0.0000 O   0  0  0  0  0  0  0  0  0  0  0  0
   14.8400  -16.1700    0.0000 C   0  0  0  0  0  0  0  0  0  0  0  0
   16.0300  -15.4000    0.0000 C   0  0  0  0  0  0  0  0  0  0  0  0
   17.2200  -16.1000    0.0000 C   0  0  0  0  0  0  0  0  0  0  0  0
   18.4100  -15.4000    0.0000 N   0  0  0  0  0  0  0  0  0  0  0  0
   19.6000  -16.1000    0.0000 C   0  0  0  0  0  0  0  0  0  0  0  0
   20.7900  -15.4000    0.0000 C   0  0  0  0  0  0  0  0  0  0  0  0
   19.6000  -17.5000    0.0000 O   0  0  0  0  0  0  0  0  0  0  0  0
   21.9800  -16.1000    0.0000 C   0  0  0  0  0  0  0  0  0  0  0  0
   23.1700  -15.4000    0.0000 C   0  0  0  0  0  0  0  0  0  0  0  0
   24.3600  -16.1000    0.0000 N   0  0  0  0  0  0  0  0  0  0  0  0
   23.1700  -14.0000    0.0000 O   0  0  0  0  0  0  0  0  0  0  0  0
   25.5500  -15.4000    0.0000 C   0  0  0  0  0  0  0  0  0  0  0  0
   26.7400  -16.1000    0.0000 C   0  0  0  0  0  0  0  0  0  0  0  0
   27.9300  -15.4000    0.0000 C   0  0  0  0  0  0  0  0  0  0  0  0
   29.1200  -16.1000    0.0000 C   0  0  0  0  0  0  0  0  0  0  0  0
   30.3100  -15.4000    0.0000 C   0  0  0  0  0  0  0  0  0  0  0  0
   31.5000  -16.1000    0.0000 N   0  0  0  0  0  0  0  0  0  0  0  0
   30.3100  -14.0000    0.0000 C   0  0  0  0  0  0  0  0  0  0  0  0
   29.1200  -13.3000    0.0000 O   0  0  0  0  0  0  0  0  0  0  0  0
   31.5000  -13.3000    0.0000 O   0  0  0  0  0  0  0  0  0  0  0  0
   32.6900  -15.4000    0.0000 C   0  0  0  0  0  0  0  0  0  0  0  0
   33.8800  -16.1000    0.0000 C   0  0  0  0  0  0  0  0  0  0  0  0
   32.6900  -14.0000    0.0000 O   0  0  0  0  0  0  0  0  0  0  0  0
   35.0700  -15.4000    0.0000 N   0  0  0  0  0  0  0  0  0  0  0  0
   33.8800  -17.5000    0.0000 C   0  0  0  0  0  0  0  0  0  0  0  0
   36.2600  -16.1000    0.0000 C   0  0  0  0  0  0  0  0  0  0  0  0
   37.4500  -15.4000    0.0000 C   0  0  0  0  0  0  0  0  0  0  0  0
   36.2600  -17.5000    0.0000 O   0  0  0  0  0  0  0  0  0  0  0  0
   32.6900  -18.2000    0.0000 N   0  0  0  0  0  0  0  0  0  0  0  0
   32.6900  -19.6000    0.0000 C   0  0  0  0  0  0  0  0  0  0  0  0
   31.5000  -20.3000    0.0000 C   0  0  0  0  0  0  0  0  0  0  0  0
   33.8800  -20.3000    0.0000 O   0  0  0  0  0  0  0  0  0  0  0  0
   30.3100  -19.6000    0.0000 C   0  0  0  0  0  0  0  0  0  0  0  0
   29.0500  -20.3000    0.0000 C   0  0  0  0  0  0  0  0  0  0  0  0
   29.0500  -21.7000    0.0000 C   0  0  0  0  0  0  0  0  0  0  0  0
   30.2400  -22.4000    0.0000 C   0  0  0  0  0  0  0  0  0  0  0  0
   31.5000  -21.7000    0.0000 C   0  0  0  0  0  0  0  0  0  0  0  0
   27.8600  -22.4000    0.0000 Si  0  0  0  0  0  0  0  0  0  0  0  0
   26.6700  -21.7000    0.0000 C   0  0  0  0  0  0  0  0  0  0  0  0
   27.8600  -23.8000    0.0000 C   0  0  0  0  0  0  0  0  0  0  0  0
   26.6700  -23.1000    0.0000 F  -1  0  0  0  0  0  0  0  0  0  0  0
   29.0500  -24.5000    0.0000 C   0  0  0  0  0  0  0  0  0  0  0  0
   26.6700  -20.3000    0.0000 C   0  0  0  0  0  0  0  0  0  0  0  0
   27.8600  -21.0000    0.0000 C   0  0  0  0  0  0  0  0  0  0  0  0
   38.6400  -16.1000    0.0000 C   0  0  0  0  0  0  0  0  0  0  0  0
   39.8300  -15.4000    0.0000 C   0  0  0  0  0  0  0  0  0  0  0  0
   41.0200  -16.1000    0.0000 N   0  0  0  0  0  0  0  0  0  0  0  0
   39.8300  -14.0000    0.0000 C   0  0  0  0  0  0  0  0  0  0  0  0
   38.6400  -13.3000    0.0000 O   0  0  0  0  0  0  0  0  0  0  0  0
   41.0200  -13.3000    0.0000 O   0  0  0  0  0  0  0  0  0  0  0  0
   41.7200  -20.0900    0.0000 C   0  0  0  0  0  0  0  0  0  0  0  0
   43.1200  -20.0900    0.0000 C   0  0  0  0  0  0  0  0  0  0  0  0
   41.0200  -18.9000    0.0000 N   0  0  0  0  0  0  0  0  0  0  0  0
   43.8200  -18.9000    0.0000 N   0  0  0  0  0  0  0  0  0  0  0  0
   45.0100  -16.8000    0.0000 C   0  0  0  0  0  0  0  0  0  0  0  0
   45.0100  -18.2000    0.0000 C   0  0  0  0  0  0  0  0  0  0  0  0
   43.8200  -16.1000    0.0000 N   0  0  0  0  0  0  0  0  0  0  0  0
   39.8300  -18.2000    0.0000 C   0  0  0  0  0  0  0  0  0  0  0  0
   39.8300  -16.8000    0.0000 C   0  0  0  0  0  0  0  0  0  0  0  0
   41.7200  -14.9100    0.0000 C   0  0  0  0  0  0  0  0  0  0  0  0
   43.1200  -14.9100    0.0000 C   0  0  0  0  0  0  0  0  0  0  0  0
   40.3200  -20.0900    0.0000 C   0  0  0  0  0  0  0  0  0  0  0  0
   44.5200  -20.0900    0.0000 C   0  0  0  0  0  0  0  0  0  0  0  0
   45.9200  -20.0900    0.0000 C   0  0  0  0  0  0  0  0  0  0  0  0
   46.6200  -21.2800    0.0000 O   0  5  0  0  0  0  0  0  0  0  0  0
   46.6200  -18.9000    0.0000 O   0  0  0  0  0  0  0  0  0  0  0  0
   44.5200  -14.9100    0.0000 C   0  0  0  0  0  0  0  0  0  0  0  0
   43.8249  -13.6947    0.0000 C   0  0  0  0  0  0  0  0  0  0  0  0
   42.4203  -13.6889    0.0000 O   0  5  0  0  0  0  0  0  0  0  0  0
   44.5178  -12.5063    0.0000 O   0  0  0  0  0  0  0  0  0  0  0  0
   41.0151  -21.3053    0.0000 C   0  0  0  0  0  0  0  0  0  0  0  0
   42.4197  -21.3111    0.0000 O   0  5  0  0  0  0  0  0  0  0  0  0
   40.3222  -22.4937    0.0000 O   0  0  0  0  0  0  0  0  0  0  0  0
   27.8600  -25.2000    0.0000 C   0  0  0  0  0  0  0  0  0  0  0  0
   25.4576  -21.0000    0.0000 C   0  0  0  0  0  0  0  0  0  0  0  0
   26.6476  -24.5000    0.0000 C   0  0  0  0  0  0  0  0  0  0  0  0
   42.0700  -17.5000    0.0000 Ga  0  1  0  0  0  0  0  0  0  0  0  0
  1  2  1  0     0  0
  1  3  1  0     0  0
  1  4  2  0     0  0
  2  5  1  0     0  0
  5  6  1  0     0  0
  6  7  1  0     0  0
  6  8  2  0     0  0
  2  9  1  1     0  0
  9 10  1  0     0  0
 10 11  1  0     0  0
 11 12  1  0     0  0
 11 13  2  0     0  0
  7 14  1  0     0  0
 14 15  1  0     0  0
 15 16  1  0     0  0
 15 17  2  0     0  0
 14 18  1  6     0  0
 18 19  1  0     0  0
 19 20  1  0     0  0
 20 21  2  0     0  0
 20 22  1  0     0  0
 23 22  1  6     0  0
 23 24  1  0     0  0
 24 25  2  0     0  0
 24 26  1  0     0  0
 23 27  1  0     0  0
 27 28  1  0     0  0
 28 29  1  0     0  0
 29 30  1  0     0  0
 30 31  1  0     0  0
 31 32  1  0     0  0
 31 33  2  0     0  0
 32 34  1  0     0  0
 34 35  1  0     0  0
 35 36  1  0     0  0
 35 37  2  0     0  0
 36 38  1  0     0  0
 38 39  1  0     0  0
 39 40  1  0     0  0
 40 41  1  0     0  0
 41 42  1  0     0  0
 42 43  1  0     0  0
 42 44  1  6     0  0
 44 45  1  0     0  0
 44 46  2  0     0  0
 43 47  1  0     0  0
 47 48  1  0     0  0
 47 49  2  0     0  0
 48 50  1  0     0  0
 48 51  1  6     0  0
 50 52  1  0     0  0
 52 53  1  0     0  0
 52 54  2  0     0  0
 51 55  1  0     0  0
 55 56  1  0     0  0
 56 57  1  0     0  0
 56 58  2  0     0  0
 57 59  2  0     0  0
 59 60  1  0     0  0
 60 61  2  0     0  0
 61 62  1  0     0  0
 62 63  2  0     0  0
 57 63  1  0     0  0
 61 64  1  0     0  0
 64 65  1  0     0  0
 64 66  1  0     0  0
 64 67  1  0     0  0
 66 68  1  0     0  0
 65 69  1  0     0  0
 65 70  1  0     0  0
 53 71  1  0     0  0
 71 72  1  0     0  0
 72 73  1  0     0  0
 72 74  1  1     0  0
 74 75  1  0     0  0
 74 76  2  0     0  0
 77 78  1  0     0  0
 77 79  1  0     0  0
 78 80  1  0     0  0
 81 82  1  0     0  0
 82 80  1  0     0  0
 81 83  1  0     0  0
 84 79  1  0     0  0
 84 85  1  0     0  0
 85 73  1  0     0  0
 86 87  1  0     0  0
 87 83  1  0     0  0
 86 73  1  0     0  0
 88 79  1  0     0  0
 89 90  1  0     0  0
 89 80  1  0     0  0
 90 91  1  0     0  0
 90 92  2  0     0  0
 93 83  1  0     0  0
 93 94  1  0     0  0
 94 95  1  0     0  0
 94 96  2  0     0  0
 88 97  1  0     0  0
 97 98  1  0     0  0
 97 99  2  0     0  0
 66100  1  0     0  0
 65101  1  0     0  0
 66102  1  0     0  0
M  CHG  4  91  -1  95  -1  98  -1 103   3
M  ISO  1  67  18
M  END
