 
 
 
 19 20  0  0  0  0  0  0  0  0999 V2000
   19.6237  -14.0870    0.0000 C   0  0  0  0  0  0  0  0  0  0  0  0
   19.6237  -15.4887    0.0000 C   0  0  0  0  0  0  0  0  0  0  0  0
   20.8151  -16.1895    0.0000 C   0  0  0  0  0  0  0  0  0  0  0  0
   22.0066  -15.4887    0.0000 C   0  0  0  0  0  0  0  0  0  0  0  0
   22.0066  -14.0870    0.0000 C   0  0  0  0  0  0  0  0  0  0  0  0
   20.8151  -13.3862    0.0000 C   0  0  0  0  0  0  0  0  0  0  0  0
   18.3622  -16.1895    0.0000 C   0  0  0  0  0  0  0  0  0  0  0  0
   17.1707  -15.5588    0.0000 C   0  0  0  0  0  0  0  0  0  0  0  0
   15.9793  -16.2596    0.0000 C   0  0  0  0  0  0  0  0  0  0  0  0
   15.9793  -17.6613    0.0000 N   0  0  0  0  0  0  0  0  0  0  0  0
   17.1707  -18.2921    0.0000 C   0  0  0  0  0  0  0  0  0  0  0  0
   18.3622  -17.5912    0.0000 C   0  0  0  0  0  0  0  0  0  0  0  0
   14.7178  -18.3622    0.0000 C   0  0  0  0  0  0  0  0  0  0  0  0
   19.0630  -17.4511    0.0000 C   0  0  0  0  0  0  0  0  0  0  0  0
   20.5348  -17.4511    0.0000 O   0  0  0  0  0  0  0  0  0  0  0  0
   18.3622  -18.6425    0.0000 O   0  0  0  0  0  0  0  0  0  0  0  0
   21.1655  -18.6425    0.0000 C   0  0  0  0  0  0  0  0  0  0  0  0
   22.6373  -18.6425    0.0000 C   0  0  0  0  0  0  0  0  0  0  0  0
   20.8151  -11.9862    0.0000 O   0  0  0  0  0  0  0  0  0  0  0  0
  1  2  2  0     0  0
  2  3  1  0     0  0
  3  4  2  0     0  0
  4  5  1  0     0  0
  5  6  2  0     0  0
  1  6  1  0     0  0
  2  7  1  0     0  0
  7  8  1  0     0  0
  8  9  1  0     0  0
  9 10  1  0     0  0
 10 11  1  0     0  0
 11 12  1  0     0  0
  7 12  1  0     0  0
 10 13  1  0     0  0
  7 14  1  0     0  0
 14 15  1  0     0  0
 14 16  2  0     0  0
 15 17  1  0     0  0
 17 18  1  0     0  0
  6 19  1  0     0  0
M  END
