 
 
 
 39 45  0  0  0  0  0  0  0  0999 V2000
   14.9935  -13.1718    0.0000 C   0  0  0  0  0  0  0  0  0  0  0  0
   14.9935  -14.5731    0.0000 C   0  0  0  0  0  0  0  0  0  0  0  0
   16.1845  -15.2737    0.0000 C   0  0  0  0  0  0  0  0  0  0  0  0
   17.4457  -14.5731    0.0000 C   0  0  0  0  0  0  0  0  0  0  0  0
   17.4457  -13.1718    0.0000 C   0  0  0  0  0  0  0  0  0  0  0  0
   16.1845  -12.4712    0.0000 C   0  0  0  0  0  0  0  0  0  0  0  0
   18.6367  -15.2737    0.0000 C   0  0  0  0  0  0  0  0  0  0  0  0
   19.8278  -14.5731    0.0000 C   0  0  0  0  0  0  0  0  0  0  0  0
   19.8278  -13.1718    0.0000 C   0  0  0  0  0  0  0  0  0  0  0  0
   18.6367  -12.4712    0.0000 C   0  0  0  0  0  0  0  0  0  0  0  0
   21.0889  -15.2737    0.0000 C   0  0  0  0  0  0  0  0  0  0  0  0
   22.2800  -14.5731    0.0000 C   0  0  0  0  0  0  0  0  0  0  0  0
   22.2800  -13.1718    0.0000 C   0  0  0  0  0  0  0  0  0  0  0  0
   21.0889  -12.4712    0.0000 C   0  0  0  0  0  0  0  0  0  0  0  0
   18.6367  -16.6750    0.0000 C   0  0  0  0  0  0  0  0  0  0  0  0
   19.8278  -17.3756    0.0000 C   0  0  0  0  0  0  0  0  0  0  0  0
   21.0889  -16.6750    0.0000 C   0  0  0  0  0  0  0  0  0  0  0  0
   16.1845  -16.6750    0.0000 C   0  0  0  0  0  0  0  0  0  0  0  0
   17.4457  -17.3756    0.0000 C   0  0  0  0  0  0  0  0  0  0  0  0
   14.9935  -17.3756    0.0000 C   0  0  0  0  0  0  0  0  0  0  0  0
   14.9935  -18.7769    0.0000 C   0  0  0  0  0  0  0  0  0  0  0  0
   16.1845  -19.4775    0.0000 C   0  0  0  0  0  0  0  0  0  0  0  0
   17.4457  -18.7769    0.0000 C   0  0  0  0  0  0  0  0  0  0  0  0
   18.6367  -19.4775    0.0000 C   0  0  0  0  0  0  0  0  0  0  0  0
   19.8278  -18.7769    0.0000 C   0  0  0  0  0  0  0  0  0  0  0  0
   21.0889  -19.4775    0.0000 C   0  0  0  0  0  0  0  0  0  0  0  0
   22.2800  -18.7769    0.0000 C   0  0  0  0  0  0  0  0  0  0  0  0
   22.2800  -17.3756    0.0000 C   0  0  0  0  0  0  0  0  0  0  0  0
   13.8024  -15.2737    0.0000 C   0  0  0  0  0  0  0  0  0  0  0  0
   16.1845  -11.0699    0.0000 O   0  0  0  0  0  0  0  0  0  0  0  0
   18.6367  -11.0699    0.0000 O   0  0  0  0  0  0  0  0  0  0  0  0
   21.0889  -11.0699    0.0000 O   0  0  0  0  0  0  0  0  0  0  0  0
   23.4711  -15.2737    0.0000 O   0  5  0  0  0  0  0  0  0  0  0  0
   13.8024  -16.6750    0.0000 C   0  0  0  0  0  0  0  0  0  0  0  0
   16.1845  -20.8788    0.0000 O   0  0  0  0  0  0  0  0  0  0  0  0
   18.6367  -20.8788    0.0000 O   0  0  0  0  0  0  0  0  0  0  0  0
   21.0889  -20.8788    0.0000 O   0  0  0  0  0  0  0  0  0  0  0  0
   23.4711  -16.6750    0.0000 O   0  0  0  0  0  0  0  0  0  0  0  0
   25.0600  -15.2600    0.0000 Na  0  3  0  0  0  0  0  0  0  0  0  0
  1  2  1  0     0  0
  2  3  2  0     0  0
  3  4  1  0     0  0
  4  5  2  0     0  0
  5  6  1  0     0  0
  1  6  2  0     0  0
  4  7  1  0     0  0
  7  8  1  0     0  0
  8  9  2  0     0  0
  9 10  1  0     0  0
  5 10  1  0     0  0
  8 11  1  0     0  0
 11 12  2  0     0  0
 12 13  1  0     0  0
 13 14  2  0     0  0
  9 14  1  0     0  0
  7 15  2  0     0  0
 15 16  1  0     0  0
 16 17  1  0     0  0
 17 11  1  0     0  0
  3 18  1  0     0  0
 18 19  1  0     0  0
 19 15  1  0     0  0
 18 20  2  0     0  0
 20 21  1  0     0  0
 21 22  2  0     0  0
 22 23  1  0     0  0
 19 23  2  0     0  0
 23 24  1  0     0  0
 24 25  1  0     0  0
 16 25  2  0     0  0
 25 26  1  0     0  0
 26 27  2  0     0  0
 27 28  1  0     0  0
 17 28  2  0     0  0
  2 29  1  0     0  0
  6 30  1  0     0  0
 10 31  2  0     0  0
 14 32  1  0     0  0
 12 33  1  0     0  0
 20 34  1  0     0  0
 22 35  1  0     0  0
 24 36  2  0     0  0
 26 37  1  0     0  0
 28 38  1  0     0  0
M  CHG  2  33  -1  39   1
M  END
