 
 
 
 86 93  0  0  0  0  0  0  0  0999 V2000
   25.2661  -16.7616    0.0000 C   0  0  0  0  0  0  0  0  0  0  0  0
   25.2661  -18.1586    0.0000 C   0  0  0  0  0  0  0  0  0  0  0  0
   24.0787  -18.8571    0.0000 C   0  0  0  0  0  0  0  0  0  0  0  0
   22.8213  -18.1586    0.0000 C   0  0  0  0  0  0  0  0  0  0  0  0
   22.8213  -16.7616    0.0000 C   0  0  0  0  0  0  0  0  0  0  0  0
   24.0787  -16.0631    0.0000 C   0  0  0  0  0  0  0  0  0  0  0  0
   26.4536  -16.0631    0.0000 F   0  0  0  0  0  0  0  0  0  0  0  0
   21.6339  -18.8571    0.0000 N   0  0  0  0  0  0  0  0  0  0  0  0
   20.4464  -18.1586    0.0000 C   0  0  0  0  0  0  0  0  0  0  0  0
   19.2589  -18.8571    0.0000 C   0  0  0  0  0  0  0  0  0  0  0  0
   18.0715  -18.1586    0.0000 C   0  0  0  0  0  0  0  0  0  0  0  0
   16.8840  -18.8571    0.0000 N   0  0  0  0  0  0  0  0  0  0  0  0
   18.0715  -16.7616    0.0000 O   0  0  0  0  0  0  0  0  0  0  0  0
   20.4464  -16.7616    0.0000 O   0  0  0  0  0  0  0  0  0  0  0  0
   15.6965  -18.1586    0.0000 C   0  0  0  0  0  0  0  0  0  0  0  0
   14.5091  -18.8571    0.0000 C   0  0  0  0  0  0  0  0  0  0  0  0
   13.2517  -18.1586    0.0000 C   0  0  0  0  0  0  0  0  0  0  0  0
   13.2517  -16.7616    0.0000 C   0  0  0  0  0  0  0  0  0  0  0  0
   14.4392  -16.0631    0.0000 C   0  0  0  0  0  0  0  0  0  0  0  0
   15.6965  -16.7616    0.0000 C   0  0  0  0  0  0  0  0  0  0  0  0
   11.9944  -16.0631    0.0000 O   0  0  0  0  0  0  0  0  0  0  0  0
   19.9574  -20.1144    0.0000 C   0  0  0  0  0  0  0  0  0  0  0  0
   18.5604  -20.1144    0.0000 C   0  0  0  0  0  0  0  0  0  0  0  0
   11.9944  -14.6660    0.0000 C   0  0  0  0  0  0  0  0  0  0  0  0
   13.2517  -13.9675    0.0000 C   0  0  0  0  0  0  0  0  0  0  0  0
   13.2517  -12.5705    0.0000 C   0  0  0  0  0  0  0  0  0  0  0  0
   12.0643  -11.8720    0.0000 N   0  0  0  0  0  0  0  0  0  0  0  0
   10.8070  -12.5705    0.0000 C   0  0  0  0  0  0  0  0  0  0  0  0
   10.8070  -13.9675    0.0000 C   0  0  0  0  0  0  0  0  0  0  0  0
   14.4392  -14.6660    0.0000 C   0  0  0  0  0  0  0  0  0  0  0  0
   15.6965  -13.9675    0.0000 C   0  0  0  0  0  0  0  0  0  0  0  0
   15.6965  -12.5705    0.0000 C   0  0  0  0  0  0  0  0  0  0  0  0
   14.4392  -11.8720    0.0000 C   0  0  0  0  0  0  0  0  0  0  0  0
   16.8840  -11.8720    0.0000 O   0  0  0  0  0  0  0  0  0  0  0  0
   18.0715  -12.5705    0.0000 C   0  0  0  0  0  0  0  0  0  0  0  0
   16.8840  -14.6660    0.0000 C   0  0  0  0  0  0  0  0  0  0  0  0
   18.0715  -13.9675    0.0000 N   0  0  0  0  0  0  0  0  0  0  0  0
   16.8840  -16.0631    0.0000 O   0  0  0  0  0  0  0  0  0  0  0  0
   19.3288  -14.6660    0.0000 C   0  0  0  0  0  0  0  0  0  0  0  0
   31.1500  -15.8200    0.0000 C   0  0  0  0  0  0  0  0  0  0  0  0
   32.3624  -16.5200    0.0000 C   0  0  0  0  0  0  0  0  0  0  0  0
   29.9376  -16.5200    0.0000 O   0  0  0  0  0  0  0  0  0  0  0  0
   31.1500  -14.4200    0.0000 O   0  0  0  0  0  0  0  0  0  0  0  0
   33.5579  -15.8296    0.0000 C   0  0  0  0  0  0  0  0  0  0  0  0
   34.7453  -16.5151    0.0000 C   0  0  0  0  0  0  0  0  0  0  0  0
   35.9365  -15.8271    0.0000 O   0  0  0  0  0  0  0  0  0  0  0  0
   34.7455  -17.9198    0.0000 O   0  0  0  0  0  0  0  0  0  0  0  0
   25.2661  -16.7616    0.0000 C   0  0  0  0  0  0  0  0  0  0  0  0
   25.2661  -18.1586    0.0000 C   0  0  0  0  0  0  0  0  0  0  0  0
   24.0787  -18.8571    0.0000 C   0  0  0  0  0  0  0  0  0  0  0  0
   22.8213  -18.1586    0.0000 C   0  0  0  0  0  0  0  0  0  0  0  0
   22.8213  -16.7616    0.0000 C   0  0  0  0  0  0  0  0  0  0  0  0
   24.0787  -16.0631    0.0000 C   0  0  0  0  0  0  0  0  0  0  0  0
   21.6339  -18.8571    0.0000 N   0  0  0  0  0  0  0  0  0  0  0  0
   20.4464  -18.1586    0.0000 C   0  0  0  0  0  0  0  0  0  0  0  0
   19.2589  -18.8571    0.0000 C   0  0  0  0  0  0  0  0  0  0  0  0
   18.0715  -18.1586    0.0000 C   0  0  0  0  0  0  0  0  0  0  0  0
   16.8840  -18.8571    0.0000 N   0  0  0  0  0  0  0  0  0  0  0  0
   15.6965  -18.1586    0.0000 C   0  0  0  0  0  0  0  0  0  0  0  0
   14.5091  -18.8571    0.0000 C   0  0  0  0  0  0  0  0  0  0  0  0
   13.2517  -18.1586    0.0000 C   0  0  0  0  0  0  0  0  0  0  0  0
   13.2517  -16.7616    0.0000 C   0  0  0  0  0  0  0  0  0  0  0  0
   14.4392  -16.0631    0.0000 C   0  0  0  0  0  0  0  0  0  0  0  0
   15.6965  -16.7616    0.0000 C   0  0  0  0  0  0  0  0  0  0  0  0
   11.9944  -16.0631    0.0000 O   0  0  0  0  0  0  0  0  0  0  0  0
   11.9944  -14.6660    0.0000 C   0  0  0  0  0  0  0  0  0  0  0  0
   13.2517  -13.9675    0.0000 C   0  0  0  0  0  0  0  0  0  0  0  0
   13.2517  -12.5705    0.0000 C   0  0  0  0  0  0  0  0  0  0  0  0
   12.0643  -11.8720    0.0000 N   0  0  0  0  0  0  0  0  0  0  0  0
   10.8070  -12.5705    0.0000 C   0  0  0  0  0  0  0  0  0  0  0  0
   10.8070  -13.9675    0.0000 C   0  0  0  0  0  0  0  0  0  0  0  0
   14.4392  -11.8720    0.0000 C   0  0  0  0  0  0  0  0  0  0  0  0
   15.6965  -12.5705    0.0000 C   0  0  0  0  0  0  0  0  0  0  0  0
   15.6965  -13.9675    0.0000 C   0  0  0  0  0  0  0  0  0  0  0  0
   14.4392  -14.6660    0.0000 C   0  0  0  0  0  0  0  0  0  0  0  0
   16.8840  -14.6660    0.0000 C   0  0  0  0  0  0  0  0  0  0  0  0
   18.0715  -13.9675    0.0000 N   0  0  0  0  0  0  0  0  0  0  0  0
   19.3288  -14.6660    0.0000 C   0  0  0  0  0  0  0  0  0  0  0  0
   16.8840  -16.0631    0.0000 O   0  0  0  0  0  0  0  0  0  0  0  0
   16.8840  -11.8720    0.0000 O   0  0  0  0  0  0  0  0  0  0  0  0
   18.0715  -12.5705    0.0000 C   0  0  0  0  0  0  0  0  0  0  0  0
   18.0715  -16.7616    0.0000 O   0  0  0  0  0  0  0  0  0  0  0  0
   18.5604  -20.1144    0.0000 C   0  0  0  0  0  0  0  0  0  0  0  0
   19.9574  -20.1144    0.0000 C   0  0  0  0  0  0  0  0  0  0  0  0
   20.4464  -16.7616    0.0000 O   0  0  0  0  0  0  0  0  0  0  0  0
   26.4536  -16.0631    0.0000 F   0  0  0  0  0  0  0  0  0  0  0  0
 40 41  1  0     0  0
 40 42  1  0     0  0
 40 43  2  0     0  0
 41 44  2  0     0  0
 44 45  1  0     0  0
 45 46  2  0     0  0
 45 47  1  0     0  0
  1  2  2  0     0  0
  2  3  1  0     0  0
  3  4  2  0     0  0
  4  5  1  0     0  0
  5  6  2  0     0  0
  1  6  1  0     0  0
  1  7  1  0     0  0
  4  8  1  0     0  0
  8  9  1  0     0  0
  9 10  1  0     0  0
 10 11  1  0     0  0
 11 12  1  0     0  0
 11 13  2  0     0  0
  9 14  2  0     0  0
 12 15  1  0     0  0
 15 16  2  0     0  0
 16 17  1  0     0  0
 17 18  2  0     0  0
 18 19  1  0     0  0
 19 20  2  0     0  0
 15 20  1  0     0  0
 18 21  1  0     0  0
 22 23  1  0     0  0
 23 10  1  0     0  0
 10 22  1  0     0  0
 21 24  1  0     0  0
 24 25  2  0     0  0
 25 26  1  0     0  0
 26 27  2  0     0  0
 27 28  1  0     0  0
 28 29  2  0     0  0
 24 29  1  0     0  0
 25 30  1  0     0  0
 30 31  2  0     0  0
 31 32  1  0     0  0
 32 33  2  0     0  0
 26 33  1  0     0  0
 32 34  1  0     0  0
 34 35  1  0     0  0
 31 36  1  0     0  0
 36 37  1  0     0  0
 36 38  2  0     0  0
 37 39  1  0     0  0
 48 49  2  0     0  0
 49 50  1  0     0  0
 50 51  2  0     0  0
 51 52  1  0     0  0
 52 53  2  0     0  0
 48 53  1  0     0  0
 48 86  1  0     0  0
 51 54  1  0     0  0
 54 55  1  0     0  0
 55 56  1  0     0  0
 56 57  1  0     0  0
 57 58  1  0     0  0
 57 82  2  0     0  0
 55 85  2  0     0  0
 58 59  1  0     0  0
 59 60  2  0     0  0
 60 61  1  0     0  0
 61 62  2  0     0  0
 62 63  1  0     0  0
 63 64  2  0     0  0
 59 64  1  0     0  0
 62 65  1  0     0  0
 84 83  1  0     0  0
 83 56  1  0     0  0
 56 84  1  0     0  0
 65 66  1  0     0  0
 66 67  2  0     0  0
 67 68  1  0     0  0
 68 69  2  0     0  0
 69 70  1  0     0  0
 70 71  2  0     0  0
 66 71  1  0     0  0
 67 75  1  0     0  0
 75 74  2  0     0  0
 74 73  1  0     0  0
 73 72  2  0     0  0
 68 72  1  0     0  0
 73 80  1  0     0  0
 80 81  1  0     0  0
 74 76  1  0     0  0
 76 77  1  0     0  0
 76 79  2  0     0  0
 77 78  1  0     0  0
M  STY  1   1 MUL
M  SLB  1   1   1
M  SCN  1   1 HT 
M  SAL   1 15   1   2   3   4   5   6   7   8   9  10  11  12  13  14  15
M  SAL   1 15  16  17  18  19  20  21  22  23  24  25  26  27  28  29  30
M  SAL   1 15  31  32  33  34  35  36  37  38  39  48  49  50  51  52  53
M  SAL   1 15  54  55  56  57  58  59  60  61  62  63  64  65  66  67  68
M  SAL   1 15  69  70  71  72  73  74  75  76  77  78  79  80  81  82  83
M  SAL   1  3  84  85  86
M  SPA   1 15   1   2   3   4   5   6   8   9  10  11  12  15  16  17  18
M  SPA   1 15  19  20  21  24  25  26  27  28  29  33  32  31  30  36  37
M  SPA   1  9  39  38  34  35  13  23  22  14   7
M  SDI   1  4   10.3600  -20.4400   10.3600  -11.0600
M  SDI   1  4   27.1600  -11.0600   27.1600  -20.4400
M  SMT   1 2
M  END
