 
 
 
 19 22  0  0  1  0  0  0  0  0999 V2000
   17.3568  -16.6569    0.0000 C   0  0  2  0  0  0  0  0  0  0  0  0
   18.5466  -17.3568    0.0000 C   0  0  2  0  0  0  0  0  0  0  0  0
   17.3568  -15.3272    0.0000 C   0  0  0  0  0  0  0  0  0  0  0  0
   18.5466  -16.0270    0.0000 C   0  0  0  0  0  0  0  0  0  0  0  0
   16.2370  -17.3568    0.0000 C   0  0  0  0  0  0  0  0  0  0  0  0
   19.7364  -16.6569    0.0000 C   0  0  1  0  0  0  0  0  0  0  0  0
   18.5466  -18.6866    0.0000 C   0  0  0  0  0  0  0  0  0  0  0  0
   18.5466  -14.6273    0.0000 C   0  0  0  0  0  0  0  0  0  0  0  0
   16.1670  -14.6273    0.0000 C   0  0  0  0  0  0  0  0  0  0  0  0
   16.2370  -18.6866    0.0000 C   0  0  0  0  0  0  0  0  0  0  0  0
   19.7364  -15.3272    0.0000 C   0  0  0  0  0  0  0  0  0  0  0  0
   20.9261  -17.3568    0.0000 N   0  0  3  0  0  0  0  0  0  0  0  0
   17.4268  -19.3864    0.0000 C   0  0  0  0  0  0  0  0  0  0  0  0
   18.5466  -13.2975    0.0000 C   0  0  0  0  0  0  0  0  0  0  0  0
   16.1670  -13.2975    0.0000 C   0  0  0  0  0  0  0  0  0  0  0  0
   17.3568  -12.5977    0.0000 C   0  0  0  0  0  0  0  0  0  0  0  0
   15.0472  -12.5977    0.0000 O   0  0  0  0  0  0  0  0  0  0  0  0
   19.7364  -18.0567    0.0000 H   0  0  0  0  0  0  0  0  0  0  0  0
   20.9260  -15.9461    0.0000 C   0  0  0  0  0  0  0  0  0  0  0  0
  1  2  1  0     0  0
  1  3  1  0     0  0
  1  4  1  1     0  0
  1  5  1  0     0  0
  2  6  1  0     0  0
  2  7  1  0     0  0
  3  8  2  0     0  0
  3  9  1  0     0  0
  5 10  1  0     0  0
  6 11  1  0     0  0
  6 12  1  1     0  0
  7 13  1  0     0  0
  8 14  1  0     0  0
  9 15  2  0     0  0
 14 16  2  0     0  0
 15 17  1  0     0  0
  8 11  1  0     0  0
 10 13  1  0     0  0
 15 16  1  0     0  0
  2 18  1  1     0  0
 12 19  1  0     0  0
  4 19  1  0     0  0
M  END
