 
 
 
 24 26  0  0  0  0  0  0  0  0999 V2000
   11.7600  -16.7300    0.0000 C   0  0  0  0  0  0  0  0  0  0  0  0
   11.7600  -18.1300    0.0000 C   0  0  0  0  0  0  0  0  0  0  0  0
   12.9724  -18.8300    0.0000 N   0  0  0  0  0  0  0  0  0  0  0  0
   14.1849  -18.1300    0.0000 C   0  0  0  0  0  0  0  0  0  0  0  0
   14.1849  -16.7300    0.0000 C   0  0  0  0  0  0  0  0  0  0  0  0
   12.9724  -16.0300    0.0000 C   0  0  0  0  0  0  0  0  0  0  0  0
   15.5164  -18.5626    0.0000 N   0  0  0  0  0  0  0  0  0  0  0  0
   16.3393  -17.4300    0.0000 C   0  0  0  0  0  0  0  0  0  0  0  0
   15.5164  -16.2974    0.0000 C   0  0  0  0  0  0  0  0  0  0  0  0
   17.7100  -17.4300    0.0000 N   0  0  0  0  0  0  0  0  0  0  0  0
   15.9475  -14.9706    0.0000 C   0  0  0  0  0  0  0  0  0  0  0  0
   17.3269  -14.6774    0.0000 N   0  0  0  0  0  0  0  0  0  0  0  0
   15.0211  -13.9415    0.0000 O   0  0  0  0  0  0  0  0  0  0  0  0
   10.5476  -16.0300    0.0000 C   0  0  0  0  0  0  0  0  0  0  0  0
   10.5476  -18.8300    0.0000 C   0  0  0  0  0  0  0  0  0  0  0  0
   15.9475  -19.8894    0.0000 C   0  0  0  0  0  0  0  0  0  0  0  0
   15.0211  -20.9185    0.0000 C   0  0  0  0  0  0  0  0  0  0  0  0
   15.4538  -22.2499    0.0000 C   0  0  0  0  0  0  0  0  0  0  0  0
   16.8233  -22.5409    0.0000 C   0  0  0  0  0  0  0  0  0  0  0  0
   17.7497  -21.5118    0.0000 C   0  0  0  0  0  0  0  0  0  0  0  0
   17.3170  -20.1803    0.0000 C   0  0  0  0  0  0  0  0  0  0  0  0
   13.6816  -20.6340    0.0000 C   0  0  0  0  0  0  0  0  0  0  0  0
   18.2514  -19.1423    0.0000 C   0  0  0  0  0  0  0  0  0  0  0  0
   14.5195  -23.2879    0.0000 O   0  0  0  0  0  0  0  0  0  0  0  0
  1  2  2  0     0  0
  2  3  1  0     0  0
  3  4  2  0     0  0
  4  5  1  0     0  0
  5  6  2  0     0  0
  1  6  1  0     0  0
  4  7  1  0     0  0
  7  8  1  0     0  0
  8  9  2  0     0  0
  5  9  1  0     0  0
  8 10  1  0     0  0
  9 11  1  0     0  0
 11 12  1  0     0  0
 11 13  2  0     0  0
  1 14  1  0     0  0
  2 15  1  0     0  0
  7 16  1  0     0  0
 16 17  2  0     0  0
 17 18  1  0     0  0
 18 19  2  0     0  0
 19 20  1  0     0  0
 20 21  2  0     0  0
 16 21  1  0     0  0
 17 22  1  0     0  0
 21 23  1  0     0  0
 18 24  1  0     0  0
M  END