 
     RDKit          2D

 71 78  0  1  1  0  0  0  0  0999 V2000
   10.5682  -15.2574    0.0000 C   0  0  0  0  0  0  0  0  0  0  0  0
   10.5682  -16.6571    0.0000 C   0  0  0  0  0  0  0  0  0  0  0  0
   11.7580  -17.3570    0.0000 C   0  0  0  0  0  0  0  0  0  0  0  0
   13.0877  -16.6571    0.0000 C   0  0  0  0  0  0  0  0  0  0  0  0
   13.0877  -15.2574    0.0000 C   0  0  0  0  0  0  0  0  0  0  0  0
   11.7580  -14.5575    0.0000 C   0  0  0  0  0  0  0  0  0  0  0  0
   14.2775  -17.3570    0.0000 C   0  0  0  0  0  0  0  0  0  0  0  0
   15.4673  -16.6571    0.0000 N   0  0  0  0  0  0  0  0  0  0  0  0
   15.4673  -15.2574    0.0000 C   0  0  0  0  0  0  0  0  0  0  0  0
   14.2775  -14.5575    0.0000 N   0  0  0  0  0  0  0  0  0  0  0  0
   14.2775  -18.7568    0.0000 C   0  0  0  0  0  0  0  0  0  0  0  0
   16.6571  -14.5575    0.0000 C   0  0  0  0  0  0  0  0  0  0  0  0
   17.8469  -15.2574    0.0000 N   0  0  0  0  0  0  0  0  0  0  0  0
   17.8469  -16.6571    0.0000 C   0  0  0  0  0  0  0  0  0  0  0  0
   19.1067  -17.3570    0.0000 N   0  0  0  0  0  0  0  0  0  0  0  0
   20.2965  -16.6571    0.0000 C   0  0  0  0  0  0  0  0  0  0  0  0
   20.2965  -15.2574    0.0000 C   0  0  0  0  0  0  0  0  0  0  0  0
   19.1067  -14.5575    0.0000 C   0  0  0  0  0  0  0  0  0  0  0  0
   19.1067  -13.1577    0.0000 O   0  0  0  0  0  0  0  0  0  0  0  0
   16.6571  -17.3570    0.0000 O   0  0  0  0  0  0  0  0  0  0  0  0
   19.1067  -18.7568    0.0000 C   0  0  0  0  0  0  0  0  0  0  0  0
   21.6263  -17.0771    0.0000 N   0  0  0  0  0  0  0  0  0  0  0  0
   22.4661  -15.9572    0.0000 C   0  0  0  0  0  0  0  0  0  0  0  0
   21.6263  -14.8374    0.0000 N   0  0  0  0  0  0  0  0  0  0  0  0
   23.8659  -15.9572    0.0000 N   0  0  0  0  0  0  0  0  0  0  0  0
   24.5658  -17.1470    0.0000 C   0  0  0  0  0  0  0  0  0  0  0  0
   25.9655  -17.1470    0.0000 C   0  0  0  0  0  0  0  0  0  0  0  0
   26.6654  -15.9572    0.0000 C   0  0  0  0  0  0  0  0  0  0  0  0
   25.9655  -14.7675    0.0000 C   0  0  0  0  0  0  0  0  0  0  0  0
   24.5658  -14.7675    0.0000 C   0  0  0  0  0  0  0  0  0  0  0  0
   26.6654  -18.4068    0.0000 N   0  0  0  0  0  0  0  0  0  0  0  0
   22.3261  -13.6476    0.0000 C   0  0  0  0  0  0  0  0  0  0  0  0
   23.7259  -13.6476    0.0000 C   0  0  0  0  0  0  0  0  0  0  0  0
   25.1257  -13.6476    0.0000 C   0  0  0  0  0  0  0  0  0  0  0  0
   26.5254  -13.6476    0.0000 C   0  0  0  0  0  0  0  0  0  0  0  0
   32.6900  -16.7300    0.0000 O   0  0  0  0  0  0  0  0  0  0  0  0
   10.5682  -15.2574    0.0000 C   0  0  0  0  0  0  0  0  0  0  0  0
   10.5682  -16.6571    0.0000 C   0  0  0  0  0  0  0  0  0  0  0  0
   11.7580  -17.3570    0.0000 C   0  0  0  0  0  0  0  0  0  0  0  0
   13.0877  -16.6571    0.0000 C   0  0  0  0  0  0  0  0  0  0  0  0
   13.0877  -15.2574    0.0000 C   0  0  0  0  0  0  0  0  0  0  0  0
   11.7580  -14.5575    0.0000 C   0  0  0  0  0  0  0  0  0  0  0  0
   14.2775  -14.5575    0.0000 N   0  0  0  0  0  0  0  0  0  0  0  0
   15.4673  -15.2574    0.0000 C   0  0  0  0  0  0  0  0  0  0  0  0
   15.4673  -16.6571    0.0000 N   0  0  0  0  0  0  0  0  0  0  0  0
   14.2775  -17.3570    0.0000 C   0  0  0  0  0  0  0  0  0  0  0  0
   14.2775  -18.7568    0.0000 C   0  0  0  0  0  0  0  0  0  0  0  0
   16.6571  -14.5575    0.0000 C   0  0  0  0  0  0  0  0  0  0  0  0
   17.8469  -15.2574    0.0000 N   0  0  0  0  0  0  0  0  0  0  0  0
   17.8469  -16.6571    0.0000 C   0  0  0  0  0  0  0  0  0  0  0  0
   19.1067  -17.3570    0.0000 N   0  0  0  0  0  0  0  0  0  0  0  0
   20.2965  -16.6571    0.0000 C   0  0  0  0  0  0  0  0  0  0  0  0
   20.2965  -15.2574    0.0000 C   0  0  0  0  0  0  0  0  0  0  0  0
   19.1067  -14.5575    0.0000 C   0  0  0  0  0  0  0  0  0  0  0  0
   19.1067  -13.1577    0.0000 O   0  0  0  0  0  0  0  0  0  0  0  0
   21.6263  -14.8374    0.0000 N   0  0  0  0  0  0  0  0  0  0  0  0
   22.4661  -15.9572    0.0000 C   0  0  0  0  0  0  0  0  0  0  0  0
   21.6263  -17.0771    0.0000 N   0  0  0  0  0  0  0  0  0  0  0  0
   23.8659  -15.9572    0.0000 N   0  0  0  0  0  0  0  0  0  0  0  0
   24.5658  -17.1470    0.0000 C   0  0  0  0  0  0  0  0  0  0  0  0
   25.9655  -17.1470    0.0000 C   0  0  0  0  0  0  0  0  0  0  0  0
   26.6654  -15.9572    0.0000 C   0  0  0  0  0  0  0  0  0  0  0  0
   25.9655  -14.7675    0.0000 C   0  0  0  0  0  0  0  0  0  0  0  0
   24.5658  -14.7675    0.0000 C   0  0  0  0  0  0  0  0  0  0  0  0
   26.6654  -18.4068    0.0000 N   0  0  0  0  0  0  0  0  0  0  0  0
   22.3261  -13.6476    0.0000 C   0  0  0  0  0  0  0  0  0  0  0  0
   23.7259  -13.6476    0.0000 C   0  0  0  0  0  0  0  0  0  0  0  0
   25.1257  -13.6476    0.0000 C   0  0  0  0  0  0  0  0  0  0  0  0
   26.5254  -13.6476    0.0000 C   0  0  0  0  0  0  0  0  0  0  0  0
   19.1067  -18.7568    0.0000 C   0  0  0  0  0  0  0  0  0  0  0  0
   16.6571  -17.3570    0.0000 O   0  0  0  0  0  0  0  0  0  0  0  0
  1  2  2  0
  2  3  1  0
  3  4  2  0
  4  5  1  0
  5  6  2  0
  1  6  1  0
  4  7  1  0
  7  8  2  0
  8  9  1  0
  9 10  2  0
  5 10  1  0
  7 11  1  0
  9 12  1  0
 12 13  1  0
 13 14  1  0
 14 15  1  0
 15 16  1  0
 16 17  2  0
 17 18  1  0
 13 18  1  0
 18 19  2  0
 14 20  2  0
 15 21  1  0
 16 22  1  0
 22 23  2  0
 23 24  1  0
 17 24  1  0
 23 25  1  0
 25 26  1  0
 26 27  1  0
 27 28  1  0
 28 29  1  0
 29 30  1  0
 25 30  1  0
 27 31  1  1
 32 33  1  0
 32 24  1  0
 33 34  3  0
 34 35  1  0
 37 38  2  0
 38 39  1  0
 39 40  2  0
 40 41  1  0
 41 42  2  0
 37 42  1  0
 40 46  1  0
 46 45  2  0
 45 44  1  0
 44 43  2  0
 41 43  1  0
 46 47  1  0
 44 48  1  0
 48 49  1  0
 49 50  1  0
 50 51  1  0
 51 52  1  0
 52 53  2  0
 53 54  1  0
 49 54  1  0
 54 55  2  0
 50 71  2  0
 51 70  1  0
 52 58  1  0
 58 57  2  0
 57 56  1  0
 53 56  1  0
 57 59  1  0
 59 60  1  0
 60 61  1  0
 61 62  1  0
 62 63  1  0
 63 64  1  0
 59 64  1  0
 61 65  1  1
 66 67  1  0
 66 56  1  0
 67 68  3  0
 68 69  1  0
M  STY  1   1 MUL
M  SLB  1   1   1
M  SCN  1   1 HT 
M  SAL   1 15   1   2   3   4   5   6   7   8   9  10  11  12  13  14  15
M  SAL   1 15  16  17  18  19  20  21  22  23  24  25  26  27  28  29  30
M  SAL   1 15  31  32  33  34  35  37  38  39  40  41  42  43  44  45  46
M  SAL   1 15  47  48  49  50  51  52  53  54  55  56  57  58  59  60  61
M  SAL   1 10  62  63  64  65  66  67  68  69  70  71
M  SPA   1 15   1   2   3   4   5   6  10   9   8   7  11  12  13  14  15
M  SPA   1 15  16  17  18  19  24  23  22  25  26  27  28  29  30  31  32
M  SPA   1  5  33  34  35  21  20
M  SDI   1  4    9.8700  -20.2300    9.8700  -11.4800
M  SDI   1  4   29.1900  -11.4800   29.1900  -20.2300
M  SMT   1 2
M  END
