 
 
 
 33 33  0  0  0  0  0  0  0  0999 V2000
   14.9790  -13.5091    0.0000 C   0  0  0  0  0  0  0  0  0  0  0  0
   14.9790  -14.9090    0.0000 C   0  0  0  0  0  0  0  0  0  0  0  0
   16.1689  -15.6089    0.0000 C   0  0  0  0  0  0  0  0  0  0  0  0
   17.4988  -14.9090    0.0000 C   0  0  0  0  0  0  0  0  0  0  0  0
   17.4988  -13.5091    0.0000 C   0  0  0  0  0  0  0  0  0  0  0  0
   16.1689  -12.8091    0.0000 C   0  0  0  0  0  0  0  0  0  0  0  0
   13.7891  -12.8091    0.0000 C   0  0  0  0  0  0  0  0  0  0  0  0
   12.5291  -13.5091    0.0000 C   0  0  0  0  0  0  0  0  0  0  0  0
   12.5291  -14.9090    0.0000 C   0  0  0  0  0  0  0  0  0  0  0  0
   13.7891  -15.6089    0.0000 C   0  0  0  0  0  0  0  0  0  0  0  0
   11.3392  -12.8091    0.0000 C   0  0  0  0  0  0  0  0  0  0  0  0
   10.1493  -13.5091    0.0000 N   0  0  0  0  0  0  0  0  0  0  0  0
    8.9594  -12.8091    0.0000 C   0  0  0  0  0  0  0  0  0  0  0  0
   10.1493  -14.9090    0.0000 C   0  0  0  0  0  0  0  0  0  0  0  0
    8.9594  -15.6089    0.0000 C   0  0  0  0  0  0  0  0  0  0  0  0
    7.7695  -13.5091    0.0000 C   0  0  0  0  0  0  0  0  0  0  0  0
   18.6887  -15.6089    0.0000 C   0  0  0  0  0  0  0  0  0  0  0  0
   19.8786  -14.9090    0.0000 O   0  0  0  0  0  0  0  0  0  0  0  0
   21.0685  -15.6089    0.0000 C   0  0  0  0  0  0  0  0  0  0  0  0
   22.2585  -14.9090    0.0000 N   0  0  0  0  0  0  0  0  0  0  0  0
   21.0685  -17.0088    0.0000 O   0  0  0  0  0  0  0  0  0  0  0  0
   23.4484  -15.6089    0.0000 C   0  0  0  0  0  0  0  0  0  0  0  0
   23.4484  -17.0088    0.0000 C   0  0  0  0  0  0  0  0  0  0  0  0
   24.7083  -17.7088    0.0000 C   0  0  0  0  0  0  0  0  0  0  0  0
   25.8982  -17.0088    0.0000 C   0  0  0  0  0  0  0  0  0  0  0  0
   25.8982  -15.6089    0.0000 C   0  0  0  0  0  0  0  0  0  0  0  0
   24.7083  -14.9090    0.0000 C   0  0  0  0  0  0  0  0  0  0  0  0
   27.0881  -17.7088    0.0000 C   0  0  0  0  0  0  0  0  0  0  0  0
   28.2781  -17.0088    0.0000 N   0  0  0  0  0  0  0  0  0  0  0  0
   27.0881  -19.1087    0.0000 O   0  0  0  0  0  0  0  0  0  0  0  0
   29.4680  -17.7088    0.0000 O   0  0  0  0  0  0  0  0  0  0  0  0
   26.8800  -12.5300    0.0000 Cl  0  0  0  0  0  0  0  0  0  0  0  0
   30.4500  -12.4600    0.0000 O   0  0  0  0  0  0  0  0  0  0  0  0
  1  2  2  0     0  0
  2  3  1  0     0  0
  3  4  2  0     0  0
  4  5  1  0     0  0
  5  6  2  0     0  0
  1  6  1  0     0  0
  1  7  1  0     0  0
  7  8  2  0     0  0
  8  9  1  0     0  0
  9 10  2  0     0  0
  2 10  1  0     0  0
  8 11  1  0     0  0
 11 12  1  0     0  0
 12 13  1  0     0  0
 12 14  1  0     0  0
 14 15  1  0     0  0
 13 16  1  0     0  0
  4 17  1  0     0  0
 17 18  1  0     0  0
 18 19  1  0     0  0
 19 20  1  0     0  0
 19 21  2  0     0  0
 20 22  1  0     0  0
 22 23  2  0     0  0
 23 24  1  0     0  0
 24 25  2  0     0  0
 25 26  1  0     0  0
 26 27  2  0     0  0
 22 27  1  0     0  0
 25 28  1  0     0  0
 28 29  1  0     0  0
 28 30  2  0     0  0
 29 31  1  0     0  0
M  END
