 
 
 
 44 48  0  0  1  0  0  0  0  0999 V2000
   20.1600   -9.0300    0.0000 C   0  0  0  0  0  0  0  0  0  0  0  0
   18.9700   -8.3300    0.0000 C   0  0  0  0  0  0  0  0  0  0  0  0
   17.7800   -9.0300    0.0000 N   0  0  0  0  0  0  0  0  0  0  0  0
   15.8200   -9.0300    0.0000 C   0  0  0  0  0  0  0  0  0  0  0  0
   16.8000   -8.0500    0.0000 C   0  0  0  0  0  0  0  0  0  0  0  0
   16.8000  -10.0100    0.0000 C   0  0  0  0  0  0  0  0  0  0  0  0
   13.7200  -10.2200    0.0000 C   0  0  0  0  0  0  0  0  0  0  0  0
   13.0200   -9.0300    0.0000 N   0  0  0  0  0  0  0  0  0  0  0  0
   13.7200   -7.8400    0.0000 C   0  0  0  0  0  0  0  0  0  0  0  0
   15.1200   -7.8400    0.0000 C   0  0  0  0  0  0  0  0  0  0  0  0
   15.1200  -10.2200    0.0000 C   0  0  0  0  0  0  0  0  0  0  0  0
   11.6200   -9.0300    0.0000 C   0  0  0  0  0  0  0  0  0  0  0  0
   10.9200  -10.2200    0.0000 C   0  0  0  0  0  0  0  0  0  0  0  0
   11.6200  -11.4100    0.0000 C   0  0  0  0  0  0  0  0  0  0  0  0
   10.9200  -12.6700    0.0000 C   0  0  0  0  0  0  0  0  0  0  0  0
    9.5200  -12.6700    0.0000 C   0  0  0  0  0  0  0  0  0  0  0  0
    8.8200  -11.4800    0.0000 C   0  0  0  0  0  0  0  0  0  0  0  0
    9.5200  -10.2200    0.0000 C   0  0  0  0  0  0  0  0  0  0  0  0
    8.8200  -13.8600    0.0000 N   0  0  0  0  0  0  0  0  0  0  0  0
    7.4200  -13.8600    0.0000 S   0  0  0  0  0  0  0  0  0  0  0  0
    6.0200  -13.8600    0.0000 C   0  0  0  0  0  0  0  0  0  0  0  0
    5.3200  -15.0500    0.0000 C   0  0  0  0  0  0  0  0  0  0  0  0
    7.4200  -12.4600    0.0000 O   0  0  0  0  0  0  0  0  0  0  0  0
    7.4200  -15.2600    0.0000 O   0  0  0  0  0  0  0  0  0  0  0  0
   18.9700   -6.9300    0.0000 N   0  0  0  0  0  0  0  0  0  0  0  0
   20.1600   -6.2300    0.0000 C   0  0  0  0  0  0  0  0  0  0  0  0
   21.4200   -6.9300    0.0000 N   0  0  0  0  0  0  0  0  0  0  0  0
   21.4200   -8.3300    0.0000 C   0  0  0  0  0  0  0  0  0  0  0  0
   23.8000  -12.5300    0.0000 C   0  0  0  0  0  0  0  0  0  0  0  0
   23.8000  -11.1300    0.0000 C   0  0  0  0  0  0  0  0  0  0  0  0
   22.6100  -10.4300    0.0000 C   0  0  0  0  0  0  0  0  0  0  0  0
   21.3500  -11.1300    0.0000 C   0  0  0  0  0  0  0  0  0  0  0  0
   21.3500  -12.5300    0.0000 C   0  0  0  0  0  0  0  0  0  0  0  0
   22.6100  -13.2300    0.0000 C   0  0  0  0  0  0  0  0  0  0  0  0
   20.1600  -13.2300    0.0000 C   0  0  0  0  0  0  0  0  0  0  0  0
   18.9700  -12.5300    0.0000 N   0  0  0  0  0  0  0  0  0  0  0  0
   17.7800  -13.2300    0.0000 C   0  0  0  0  0  0  0  0  0  0  0  0
   20.1600  -14.6300    0.0000 O   0  0  0  0  0  0  0  0  0  0  0  0
   16.5900  -12.5300    0.0000 C   0  0  0  0  0  0  0  0  0  0  0  0
   18.9700  -11.1300    0.0000 C   0  0  0  0  0  0  0  0  0  0  0  0
   17.7800  -14.6300    0.0000 C   0  0  0  0  0  0  0  0  0  0  0  0
   17.7800  -10.4300    0.0000 C   0  0  0  0  0  0  0  0  0  0  0  0
   20.1600  -10.4300    0.0000 O   0  0  0  0  0  0  0  0  0  0  0  0
   24.9900  -13.2300    0.0000 F   0  0  0  0  0  0  0  0  0  0  0  0
  2  3  1  0     0  0
  4  5  1  0     0  0
  5  3  1  0     0  0
  3  6  1  0     0  0
  4  6  1  0     0  0
  7  8  1  0     0  0
  8  9  1  0     0  0
  9 10  1  0     0  0
 10  4  1  0     0  0
  4 11  1  0     0  0
  7 11  1  0     0  0
  8 12  1  0     0  0
 13 12  1  6     0  0
 13 14  1  0     0  0
 14 15  1  0     0  0
 15 16  1  0     0  0
 16 17  1  0     0  0
 17 18  1  0     0  0
 13 18  1  0     0  0
 16 19  1  1     0  0
 19 20  1  0     0  0
 20 21  1  0     0  0
 21 22  1  0     0  0
 20 23  2  0     0  0
 20 24  2  0     0  0
  1  2  1  0     0  0
  2 25  2  0     0  0
 25 26  1  0     0  0
 26 27  2  0     0  0
 27 28  1  0     0  0
 28  1  2  0     0  0
 29 30  2  0     0  0
 30 31  1  0     0  0
 31 32  2  0     0  0
 32 33  1  0     0  0
 33 34  2  0     0  0
 29 34  1  0     0  0
 33 35  1  0     0  0
 35 36  1  0     0  0
 36 37  1  0     0  0
 35 38  2  0     0  0
 37 39  1  0     0  0
 36 40  1  0     0  0
 37 41  1  0     0  0
 40 42  1  0     0  0
 32 43  1  0     0  0
 29 44  1  0     0  0
 43  1  1  0     0  0
M  END
