 
 
 
 37 42  0  0  1  0  0  0  0  0999 V2000
    8.2600  -17.4300    0.0000 C   0  0  0  0  0  0  0  0  0  0  0  0
    8.2600  -18.8300    0.0000 C   0  0  0  0  0  0  0  0  0  0  0  0
    9.4724  -19.5300    0.0000 C   0  0  0  0  0  0  0  0  0  0  0  0
   10.6849  -18.8300    0.0000 C   0  0  0  0  0  0  0  0  0  0  0  0
   10.6849  -17.4300    0.0000 C   0  0  0  0  0  0  0  0  0  0  0  0
    9.4724  -16.7300    0.0000 C   0  0  0  0  0  0  0  0  0  0  0  0
   11.9160  -16.7190    0.0000 C   0  0  0  0  0  0  0  0  0  0  0  0
   13.1212  -17.4147    0.0000 C   0  0  0  0  0  0  0  0  0  0  0  0
   13.1216  -18.8296    0.0000 C   0  0  0  0  0  0  0  0  0  0  0  0
   14.3342  -19.5293    0.0000 C   0  0  0  0  0  0  0  0  0  0  0  0
   15.5465  -18.8289    0.0000 O   0  0  0  0  0  0  0  0  0  0  0  0
   15.5460  -17.4139    0.0000 C   0  0  0  0  0  0  0  0  0  0  0  0
   14.3334  -16.7143    0.0000 C   0  0  0  0  0  0  0  0  0  0  0  0
   11.9157  -15.3301    0.0000 N   0  0  0  0  0  0  0  0  0  0  0  0
   13.0379  -14.5144    0.0000 C   0  0  0  0  0  0  0  0  0  0  0  0
   12.6088  -13.1951    0.0000 C   0  0  0  0  0  0  0  0  0  0  0  0
   11.2215  -13.1954    0.0000 C   0  0  0  0  0  0  0  0  0  0  0  0
   10.7932  -14.5149    0.0000 C   0  0  0  0  0  0  0  0  0  0  0  0
   10.2845  -12.1553    0.0000 N   0  0  0  0  0  0  0  0  0  0  0  0
    8.9152  -12.4467    0.0000 C   0  0  0  0  0  0  0  0  0  0  0  0
    8.4868  -13.7662    0.0000 C   0  0  0  0  0  0  0  0  0  0  0  0
    9.4239  -14.8064    0.0000 C   0  0  0  0  0  0  0  0  0  0  0  0
   14.4074  -14.8051    0.0000 C   0  0  0  0  0  0  0  0  0  0  0  0
   15.3439  -13.7645    0.0000 C   0  0  0  0  0  0  0  0  0  0  0  0
   14.9148  -12.4452    0.0000 C   0  0  0  0  0  0  0  0  0  0  0  0
   13.5454  -12.1544    0.0000 C   0  0  0  0  0  0  0  0  0  0  0  0
   16.6962  -14.1268    0.0000 C   0  0  0  0  0  0  0  0  0  0  0  0
   18.0485  -14.4892    0.0000 O   0  0  0  0  0  0  0  0  0  0  0  0
   16.3338  -15.4791    0.0000 C   0  0  0  0  0  0  0  0  0  0  0  0
   17.0585  -12.7745    0.0000 C   0  0  0  0  0  0  0  0  0  0  0  0
    7.0966  -14.0618    0.0000 C   0  0  0  0  0  0  0  0  0  0  0  0
    6.0459  -13.1154    0.0000 C   0  0  0  0  0  0  0  0  0  0  0  0
    4.8212  -13.8223    0.0000 N   0  0  0  0  0  0  0  0  0  0  0  0
    5.1150  -15.2055    0.0000 N   0  0  0  0  0  0  0  0  0  0  0  0
    6.5213  -15.3535    0.0000 N   0  0  0  0  0  0  0  0  0  0  0  0
    7.2082  -16.5435    0.0000 C   0  0  0  0  0  0  0  0  0  0  0  0
    6.1952  -11.7010    0.0000 C   0  0  0  0  0  0  0  0  0  0  0  0
  1  2  2  0     0  0
  2  3  1  0     0  0
  3  4  2  0     0  0
  4  5  1  0     0  0
  5  6  2  0     0  0
  1  6  1  0     0  0
  5  7  1  0     0  0
  7  8  1  1     0  0
  8  9  1  0     0  0
  9 10  1  0     0  0
 10 11  1  0     0  0
 11 12  1  0     0  0
 12 13  1  0     0  0
  8 13  1  0     0  0
  7 14  1  0     0  0
 14 15  1  0     0  0
 15 16  1  0     0  0
 16 17  1  0     0  0
 17 18  1  0     0  0
 14 18  1  0     0  0
 17 19  2  0     0  0
 19 20  1  0     0  0
 20 21  2  0     0  0
 21 22  1  0     0  0
 18 22  2  0     0  0
 15 23  2  0     0  0
 23 24  1  0     0  0
 24 25  2  0     0  0
 25 26  1  0     0  0
 16 26  2  0     0  0
 24 27  1  0     0  0
 27 28  1  0     0  0
 27 29  1  0     0  0
 27 30  1  0     0  0
 21 31  1  0     0  0
 31 32  2  0     0  0
 32 33  1  0     0  0
 33 34  2  0     0  0
 34 35  1  0     0  0
 31 35  1  0     0  0
 35 36  1  0     0  0
 32 37  1  0     0  0
M  END
