 
 
 
 25 27  0  0  0  0  0  0  0  0999 V2000
   23.7635  -18.4497    0.0000 C   0  0  0  0  0  0  0  0  0  0  0  0
   23.7635  -19.8528    0.0000 C   0  0  0  0  0  0  0  0  0  0  0  0
   24.9561  -20.4841    0.0000 C   0  0  0  0  0  0  0  0  0  0  0  0
   26.1487  -19.8528    0.0000 C   0  0  0  0  0  0  0  0  0  0  0  0
   26.1487  -18.4497    0.0000 C   0  0  0  0  0  0  0  0  0  0  0  0
   24.9561  -17.8184    0.0000 C   0  0  0  0  0  0  0  0  0  0  0  0
   28.3935  -19.8528    0.0000 C   0  0  0  0  0  0  0  0  0  0  0  0
   28.3935  -18.4497    0.0000 C   0  0  0  0  0  0  0  0  0  0  0  0
   27.2010  -17.8184    0.0000 C   0  0  0  0  0  0  0  0  0  0  0  0
   29.5861  -20.4841    0.0000 C   0  0  0  0  0  0  0  0  0  0  0  0
   30.7787  -19.8528    0.0000 C   0  0  0  0  0  0  0  0  0  0  0  0
   30.7787  -18.4497    0.0000 C   0  0  0  0  0  0  0  0  0  0  0  0
   29.5861  -17.8184    0.0000 C   0  0  0  0  0  0  0  0  0  0  0  0
   27.2010  -16.4154    0.0000 C   0  0  0  0  0  0  0  0  0  0  0  0
   25.3069  -16.6960    0.0000 C   0  0  0  0  0  0  0  0  0  0  0  0
   25.3069  -15.3631    0.0000 O   0  0  0  0  0  0  0  0  0  0  0  0
   24.1143  -17.3975    0.0000 C   0  0  0  0  0  0  0  0  0  0  0  0
   22.9919  -16.6960    0.0000 C   0  0  0  0  0  0  0  0  0  0  0  0
   28.4637  -15.7138    0.0000 C   0  0  0  0  0  0  0  0  0  0  0  0
   28.4637  -14.3108    0.0000 N   0  0  0  0  0  0  0  0  0  0  0  0
   29.6562  -13.6093    0.0000 C   0  0  0  0  0  0  0  0  0  0  0  0
   29.6562  -12.2063    0.0000 C   0  0  0  0  0  0  0  0  0  0  0  0
   28.4637  -11.5048    0.0000 C   0  0  0  0  0  0  0  0  0  0  0  0
   27.2711  -12.2063    0.0000 C   0  0  0  0  0  0  0  0  0  0  0  0
   27.2711  -13.6093    0.0000 C   0  0  0  0  0  0  0  0  0  0  0  0
  1  2  2  0     0  0
  2  3  1  0     0  0
  3  4  2  0     0  0
  4  5  1  0     0  0
  5  6  2  0     0  0
  1  6  1  0     0  0
  7  8  1  0     0  0
  8  9  1  0     0  0
  5  9  1  0     0  0
  7 10  2  0     0  0
 10 11  1  0     0  0
 11 12  2  0     0  0
 12 13  1  0     0  0
  8 13  2  0     0  0
  9 14  1  0     0  0
  9 15  1  0     0  0
 15 16  2  0     0  0
 15 17  1  0     0  0
 17 18  1  0     0  0
 14 19  1  0     0  0
 19 20  1  0     0  0
 20 21  1  0     0  0
 21 22  1  0     0  0
 22 23  1  0     0  0
 23 24  1  0     0  0
 24 25  1  0     0  0
 20 25  1  0     0  0
M  END
