 
 
 
 34 38  0  0  0  0  0  0  0  0999 V2000
   17.8781  -11.1586    0.0000 N   0  0  0  0  0  0  0  0  0  0  0  0
   18.1673   -9.7967    0.0000 C   0  0  0  0  0  0  0  0  0  0  0  0
   16.9615   -9.1008    0.0000 N   0  0  0  0  0  0  0  0  0  0  0  0
   10.3600   -6.5800    0.0000 C   0  0  0  0  0  0  0  0  0  0  0  0
   10.3600   -7.9800    0.0000 C   0  0  0  0  0  0  0  0  0  0  0  0
   11.5724   -8.6800    0.0000 C   0  0  0  0  0  0  0  0  0  0  0  0
   12.7849   -7.9800    0.0000 C   0  0  0  0  0  0  0  0  0  0  0  0
   12.7849   -6.5800    0.0000 C   0  0  0  0  0  0  0  0  0  0  0  0
   11.5724   -5.8800    0.0000 N   0  0  0  0  0  0  0  0  0  0  0  0
   14.1164   -8.4126    0.0000 N   0  0  0  0  0  0  0  0  0  0  0  0
   14.9393   -7.2800    0.0000 N   0  0  0  0  0  0  0  0  0  0  0  0
   14.1164   -6.1474    0.0000 C   0  0  0  0  0  0  0  0  0  0  0  0
   14.5475   -9.7394    0.0000 S   0  0  0  0  0  0  0  0  0  0  0  0
   15.9269  -10.0326    0.0000 C   0  0  0  0  0  0  0  0  0  0  0  0
   16.4934  -11.3044    0.0000 C   0  0  0  0  0  0  0  0  0  0  0  0
    9.1476   -8.6800    0.0000 C   0  0  0  0  0  0  0  0  0  0  0  0
    7.8874   -8.1188    0.0000 C   0  0  0  0  0  0  0  0  0  0  0  0
    6.9643   -9.1439    0.0000 N   0  0  0  0  0  0  0  0  0  0  0  0
    7.6539  -10.3386    0.0000 N   0  0  0  0  0  0  0  0  0  0  0  0
    9.0032  -10.0519    0.0000 C   0  0  0  0  0  0  0  0  0  0  0  0
    5.5412   -8.9935    0.0000 C   0  0  0  0  0  0  0  0  0  0  0  0
   19.3797   -9.0965    0.0000 C   0  0  0  0  0  0  0  0  0  0  0  0
   19.3794   -7.6965    0.0000 C   0  0  0  0  0  0  0  0  0  0  0  0
   18.1736   -7.0006    0.0000 C   0  0  0  0  0  0  0  0  0  0  0  0
   16.9612   -7.7008    0.0000 C   0  0  0  0  0  0  0  0  0  0  0  0
   18.1733   -5.6003    0.0000 C   0  0  0  0  0  0  0  0  0  0  0  0
   19.3232   -4.7642    0.0000 C   0  0  0  0  0  0  0  0  0  0  0  0
   18.8834   -3.4123    0.0000 N   0  0  0  0  0  0  0  0  0  0  0  0
   17.4617   -3.4128    0.0000 N   0  0  0  0  0  0  0  0  0  0  0  0
   17.0229   -4.7650    0.0000 C   0  0  0  0  0  0  0  0  0  0  0  0
   19.7032   -2.2833    0.0000 C   0  0  0  0  0  0  0  0  0  0  0  0
   13.1952  -10.1017    0.0000 O   0  0  0  0  0  0  0  0  0  0  0  0
   14.5475  -11.1394    0.0000 O   0  0  0  0  0  0  0  0  0  0  0  0
   22.4700  -10.6400    0.0000 O   0  0  0  0  0  0  0  0  0  0  0  0
  1  2  2  0     0  0
  2  3  1  0     0  0
  4  5  2  0     0  0
  5  6  1  0     0  0
  6  7  2  0     0  0
  7  8  1  0     0  0
  8  9  2  0     0  0
  4  9  1  0     0  0
  7 10  1  0     0  0
 10 11  1  0     0  0
 11 12  2  0     0  0
  8 12  1  0     0  0
 10 13  1  0     0  0
 13 14  1  0     0  0
 14 15  2  0     0  0
  5 16  1  0     0  0
 16 17  2  0     0  0
 17 18  1  0     0  0
 18 19  1  0     0  0
 19 20  2  0     0  0
 16 20  1  0     0  0
 18 21  1  0     0  0
  1 15  1  0     0  0
  3 14  1  0     0  0
  2 22  1  0     0  0
 22 23  2  0     0  0
 23 24  1  0     0  0
 24 25  2  0     0  0
  3 25  1  0     0  0
 24 26  1  0     0  0
 26 27  2  0     0  0
 27 28  1  0     0  0
 28 29  1  0     0  0
 29 30  2  0     0  0
 26 30  1  0     0  0
 28 31  1  0     0  0
 13 32  2  0     0  0
 13 33  2  0     0  0
M  END
