 
 
 
 44 46  0  0  1  0  0  0  0  0999 V2000
    8.1580  -14.6272    0.0000 C   0  0  0  0  0  0  0  0  0  0  0  0
    8.1580  -16.0337    0.0000 N   0  0  0  0  0  0  0  0  0  0  0  0
    9.3534  -16.7369    0.0000 C   0  0  0  0  0  0  0  0  0  0  0  0
   10.6192  -16.0337    0.0000 C   0  0  0  0  0  0  0  0  0  0  0  0
   10.6192  -14.6272    0.0000 N   0  0  0  0  0  0  0  0  0  0  0  0
    9.3534  -13.9943    0.0000 C   0  0  0  0  0  0  0  0  0  0  0  0
    9.3534  -18.1433    0.0000 N   0  0  0  0  0  0  0  0  0  0  0  0
   11.8850  -16.4556    0.0000 C   0  0  0  0  0  0  0  0  0  0  0  0
   12.6585  -15.3304    0.0000 N   0  0  0  0  0  0  0  0  0  0  0  0
   11.8850  -14.2756    0.0000 C   0  0  0  0  0  0  0  0  0  0  0  0
   13.0805  -17.1588    0.0000 C   0  0  0  0  0  0  0  0  0  0  0  0
   13.0805  -18.5652    0.0000 C   0  0  0  0  0  0  0  0  0  0  0  0
   14.3463  -19.2685    0.0000 C   0  0  0  0  0  0  0  0  0  0  0  0
   15.5417  -18.5652    0.0000 C   0  0  0  0  0  0  0  0  0  0  0  0
   15.5417  -17.1588    0.0000 C   0  0  0  0  0  0  0  0  0  0  0  0
   14.3463  -16.4556    0.0000 C   0  0  0  0  0  0  0  0  0  0  0  0
   12.3773  -12.9395    0.0000 C   0  0  0  0  0  0  0  0  0  0  0  0
   13.7837  -12.5176    0.0000 N   0  0  0  0  0  0  0  0  0  0  0  0
   13.7837  -11.1111    0.0000 C   0  0  0  0  0  0  0  0  0  0  0  0
   12.4476  -10.6189    0.0000 C   0  0  0  0  0  0  0  0  0  0  0  0
   11.6037  -11.7440    0.0000 C   0  0  0  0  0  0  0  0  0  0  0  0
   14.9792  -13.2208    0.0000 C   0  0  0  0  0  0  0  0  0  0  0  0
   16.1746  -12.5176    0.0000 C   0  0  0  0  0  0  0  0  0  0  0  0
   14.9792  -14.5569    0.0000 O   0  0  0  0  0  0  0  0  0  0  0  0
   17.4404  -11.8144    0.0000 C   0  0  0  0  0  0  0  0  0  0  0  0
   18.6359  -11.1111    0.0000 C   0  0  0  0  0  0  0  0  0  0  0  0
   16.7372  -19.2685    0.0000 C   0  0  0  0  0  0  0  0  0  0  0  0
   17.9327  -18.5652    0.0000 N   0  0  0  0  0  0  0  0  0  0  0  0
   16.7372  -20.6749    0.0000 O   0  0  0  0  0  0  0  0  0  0  0  0
   19.1281  -19.1981    0.0000 C   0  0  0  0  0  0  0  0  0  0  0  0
   19.1281  -20.6749    0.0000 C   0  0  0  0  0  0  0  0  0  0  0  0
   20.3236  -21.3781    0.0000 C   0  0  0  0  0  0  0  0  0  0  0  0
   21.5894  -20.6046    0.0000 C   0  0  0  0  0  0  0  0  0  0  0  0
   21.5894  -19.1981    0.0000 C   0  0  0  0  0  0  0  0  0  0  0  0
   20.3236  -18.4949    0.0000 N   0  0  0  0  0  0  0  0  0  0  0  0
   23.4178  -15.0492    0.0000 O   0  0  0  0  0  0  0  0  0  0  0  0
   24.8242  -15.0492    0.0000 C   0  0  0  0  0  0  0  0  0  0  0  0
   25.5274  -16.2446    0.0000 O   0  0  0  0  0  0  0  0  0  0  0  0
   25.5274  -13.8537    0.0000 C   0  0  0  0  0  0  0  0  0  0  0  0
   26.9338  -13.8537    0.0000 C   0  0  0  0  0  0  0  0  0  0  0  0
   27.6371  -15.0492    0.0000 C   0  0  0  0  0  0  0  0  0  0  0  0
   29.0435  -15.0492    0.0000 O   0  0  0  0  0  0  0  0  0  0  0  0
   26.9338  -16.2446    0.0000 O   0  0  0  0  0  0  0  0  0  0  0  0
   26.7400  -20.5100    0.0000 O   0  0  0  0  0  0  0  0  0  0  0  0
  1  2  1  0     0  0
  2  3  2  0     0  0
  3  4  1  0     0  0
  4  5  1  0     0  0
  5  6  1  0     0  0
  1  6  2  0     0  0
  3  7  1  0     0  0
  4  8  2  0     0  0
  8  9  1  0     0  0
  9 10  2  0     0  0
  5 10  1  0     0  0
  8 11  1  0     0  0
 11 12  2  0     0  0
 12 13  1  0     0  0
 13 14  2  0     0  0
 14 15  1  0     0  0
 15 16  2  0     0  0
 11 16  1  0     0  0
 17 10  1  6     0  0
 17 18  1  0     0  0
 18 19  1  0     0  0
 19 20  1  0     0  0
 20 21  1  0     0  0
 17 21  1  0     0  0
 18 22  1  0     0  0
 22 23  1  0     0  0
 22 24  2  0     0  0
 23 25  3  0     0  0
 25 26  1  0     0  0
 14 27  1  0     0  0
 27 28  1  0     0  0
 27 29  2  0     0  0
 28 30  1  0     0  0
 30 31  2  0     0  0
 31 32  1  0     0  0
 32 33  2  0     0  0
 33 34  1  0     0  0
 34 35  2  0     0  0
 30 35  1  0     0  0
 36 37  1  0     0  0
 37 38  2  0     0  0
 37 39  1  0     0  0
 39 40  2  0     0  0
 40 41  1  0     0  0
 41 42  2  0     0  0
 41 43  1  0     0  0
M  END
