 
 
 
 41 46  0  0  1  0  0  0  0  0999 V2000
   32.4800  -13.5800    0.0000 C   0  0  0  0  0  0  0  0  0  0  0  0
   32.4800  -14.9800    0.0000 C   0  0  0  0  0  0  0  0  0  0  0  0
   33.6924  -15.6800    0.0000 C   0  0  0  0  0  0  0  0  0  0  0  0
   34.9049  -14.9800    0.0000 C   0  0  0  0  0  0  0  0  0  0  0  0
   34.9049  -13.5800    0.0000 N   0  0  0  0  0  0  0  0  0  0  0  0
   33.6924  -12.8800    0.0000 N   0  0  0  0  0  0  0  0  0  0  0  0
   36.2364  -15.4126    0.0000 C   0  0  0  0  0  0  0  0  0  0  0  0
   37.0593  -14.2800    0.0000 C   0  0  0  0  0  0  0  0  0  0  0  0
   36.2364  -13.1474    0.0000 C   0  0  0  0  0  0  0  0  0  0  0  0
   38.4300  -14.2800    0.0000 C   0  0  0  0  0  0  0  0  0  0  0  0
   39.1300  -15.4924    0.0000 C   0  0  0  0  0  0  0  0  0  0  0  0
   40.5300  -15.4924    0.0000 C   0  0  0  0  0  0  0  0  0  0  0  0
   41.2300  -14.2800    0.0000 C   0  0  0  0  0  0  0  0  0  0  0  0
   40.5300  -13.0676    0.0000 C   0  0  0  0  0  0  0  0  0  0  0  0
   39.1300  -13.0676    0.0000 N   0  0  0  0  0  0  0  0  0  0  0  0
   42.6300  -14.2800    0.0000 C   0  0  0  0  0  0  0  0  0  0  0  0
   43.3300  -15.4924    0.0000 C   0  0  0  0  0  0  0  0  0  0  0  0
   44.7300  -15.4924    0.0000 C   0  0  0  0  0  0  0  0  0  0  0  0
   45.4300  -14.2800    0.0000 N   0  0  0  0  0  0  0  0  0  0  0  0
   44.7300  -13.0676    0.0000 C   0  0  0  0  0  0  0  0  0  0  0  0
   43.3300  -13.0676    0.0000 C   0  0  0  0  0  0  0  0  0  0  0  0
   46.8300  -14.2800    0.0000 C   0  0  0  0  0  0  0  0  0  0  0  0
   47.5300  -15.4924    0.0000 C   0  0  0  0  0  0  0  0  0  0  0  0
   47.5300  -13.0676    0.0000 C   0  0  0  0  0  0  0  0  0  0  0  0
   41.9300  -15.4924    0.0000 O   0  0  0  0  0  0  0  0  0  0  0  0
   41.9300  -16.8924    0.0000 C   0  0  0  0  0  0  0  0  0  0  0  0
   40.7273  -17.5866    0.0000 C   0  0  0  0  0  0  0  0  0  0  0  0
   33.6924  -17.0798    0.0000 N   0  0  0  0  0  0  0  0  0  0  0  0
   32.4632  -17.7897    0.0000 C   0  0  0  0  0  0  0  0  0  0  0  0
   32.4634  -19.1897    0.0000 C   0  0  0  0  0  0  0  0  0  0  0  0
   33.6759  -19.8896    0.0000 N   0  0  0  0  0  0  0  0  0  0  0  0
   34.9051  -19.1797    0.0000 C   0  0  0  0  0  0  0  0  0  0  0  0
   34.9049  -17.7797    0.0000 C   0  0  0  0  0  0  0  0  0  0  0  0
   33.6760  -21.2800    0.0000 C   0  0  0  0  0  0  0  0  0  0  0  0
   34.8840  -21.9773    0.0000 O   0  0  0  0  0  0  0  0  0  0  0  0
   32.4591  -21.9827    0.0000 O   0  0  0  0  0  0  0  0  0  0  0  0
   36.0771  -21.2882    0.0000 C   0  0  0  0  0  0  0  0  0  0  0  0
   37.3305  -21.8460    0.0000 C   0  0  0  0  0  0  0  0  0  0  0  0
   38.2483  -20.8264    0.0000 O   0  0  0  0  0  0  0  0  0  0  0  0
   37.5622  -19.6383    0.0000 C   0  0  0  0  0  0  0  0  0  0  0  0
   36.2203  -19.9238    0.0000 C   0  0  0  0  0  0  0  0  0  0  0  0
  1  2  1  0     0  0
  2  3  2  0     0  0
  3  4  1  0     0  0
  4  5  1  0     0  0
  5  6  1  0     0  0
  1  6  2  0     0  0
  4  7  2  0     0  0
  7  8  1  0     0  0
  8  9  2  0     0  0
  5  9  1  0     0  0
  8 10  1  0     0  0
 10 11  2  0     0  0
 11 12  1  0     0  0
 12 13  2  0     0  0
 13 14  1  0     0  0
 14 15  2  0     0  0
 10 15  1  0     0  0
 13 16  1  0     0  0
 16 17  1  0     0  0
 17 18  1  0     0  0
 18 19  1  0     0  0
 19 20  1  0     0  0
 20 21  1  0     0  0
 16 21  1  0     0  0
 19 22  1  0     0  0
 22 23  1  0     0  0
 22 24  1  0     0  0
 16 25  1  0     0  0
 25 26  1  0     0  0
 26 27  1  0     0  0
  3 28  1  0     0  0
 28 29  1  0     0  0
 29 30  1  0     0  0
 30 31  1  0     0  0
 31 32  1  0     0  0
 32 33  1  0     0  0
 28 33  1  0     0  0
 31 34  1  0     0  0
 34 35  1  0     0  0
 34 36  2  0     0  0
 37 35  1  6     0  0
 37 38  1  0     0  0
 38 39  1  0     0  0
 39 40  1  0     0  0
 40 41  1  0     0  0
 37 41  1  0     0  0
M  END
