 
 
 
 58 60  0  0  1  0  0  0  0  0999 V2000
   23.6623  -14.2393    0.0000 C   0  0  0  0  0  0  0  0  0  0  0  0
   22.4757  -13.5413    0.0000 C   0  0  0  0  0  0  0  0  0  0  0  0
   21.2891  -14.2393    0.0000 N   0  0  0  0  0  0  0  0  0  0  0  0
   19.3347  -14.2393    0.0000 C   0  0  0  0  0  0  0  0  0  0  0  0
   20.3119  -13.2621    0.0000 C   0  0  0  0  0  0  0  0  0  0  0  0
   20.3119  -15.2165    0.0000 C   0  0  0  0  0  0  0  0  0  0  0  0
   17.2407  -15.4259    0.0000 C   0  0  0  0  0  0  0  0  0  0  0  0
   16.5427  -14.2393    0.0000 N   0  0  0  0  0  0  0  0  0  0  0  0
   17.2407  -13.0527    0.0000 C   0  0  0  0  0  0  0  0  0  0  0  0
   18.6367  -13.0527    0.0000 C   0  0  0  0  0  0  0  0  0  0  0  0
   18.6367  -15.4259    0.0000 C   0  0  0  0  0  0  0  0  0  0  0  0
   15.1467  -14.2393    0.0000 C   0  0  0  0  0  0  0  0  0  0  0  0
   14.4487  -15.4259    0.0000 C   0  0  0  0  0  0  0  0  0  0  0  0
   15.1467  -16.6823    0.0000 C   0  0  0  0  0  0  0  0  0  0  0  0
   14.4487  -17.9387    0.0000 C   0  0  0  0  0  0  0  0  0  0  0  0
   12.9829  -17.9387    0.0000 C   0  0  0  0  0  0  0  0  0  0  0  0
   12.2849  -16.7521    0.0000 C   0  0  0  0  0  0  0  0  0  0  0  0
   12.9829  -15.4259    0.0000 C   0  0  0  0  0  0  0  0  0  0  0  0
   12.2849  -19.1253    0.0000 N   0  0  0  0  0  0  0  0  0  0  0  0
   10.8889  -19.1253    0.0000 S   0  0  0  0  0  0  0  0  0  0  0  0
    9.4929  -19.1253    0.0000 C   0  0  0  0  0  0  0  0  0  0  0  0
    8.7950  -20.3119    0.0000 C   0  0  0  0  0  0  0  0  0  0  0  0
   10.8889  -17.7293    0.0000 O   0  0  0  0  0  0  0  0  0  0  0  0
   10.8889  -20.5213    0.0000 O   0  0  0  0  0  0  0  0  0  0  0  0
   22.4757  -12.1453    0.0000 N   0  0  0  0  0  0  0  0  0  0  0  0
   23.6623  -11.4473    0.0000 C   0  0  0  0  0  0  0  0  0  0  0  0
   24.9187  -12.1453    0.0000 N   0  0  0  0  0  0  0  0  0  0  0  0
   24.9187  -13.5413    0.0000 C   0  0  0  0  0  0  0  0  0  0  0  0
   27.2919  -17.7991    0.0000 C   0  0  0  0  0  0  0  0  0  0  0  0
   27.2919  -16.4031    0.0000 C   0  0  0  0  0  0  0  0  0  0  0  0
   26.1053  -15.6353    0.0000 C   0  0  0  0  0  0  0  0  0  0  0  0
   24.8489  -16.4031    0.0000 C   0  0  0  0  0  0  0  0  0  0  0  0
   24.8489  -17.7991    0.0000 C   0  0  0  0  0  0  0  0  0  0  0  0
   26.1053  -18.4971    0.0000 C   0  0  0  0  0  0  0  0  0  0  0  0
   23.6623  -18.4971    0.0000 C   0  0  0  0  0  0  0  0  0  0  0  0
   22.4757  -17.7991    0.0000 N   0  0  0  0  0  0  0  0  0  0  0  0
   21.2891  -18.4971    0.0000 C   0  0  0  0  0  0  0  0  0  0  0  0
   23.6623  -19.8931    0.0000 O   0  0  0  0  0  0  0  0  0  0  0  0
   20.1025  -17.7991    0.0000 C   0  0  0  0  0  0  0  0  0  0  0  0
   22.4757  -16.4031    0.0000 C   0  0  0  0  0  0  0  0  0  0  0  0
   21.2891  -19.8931    0.0000 C   0  0  0  0  0  0  0  0  0  0  0  0
   21.2891  -15.6353    0.0000 C   0  0  0  0  0  0  0  0  0  0  0  0
   23.6623  -15.6353    0.0000 O   0  0  0  0  0  0  0  0  0  0  0  0
   28.4784  -18.4971    0.0000 F   0  0  0  0  0  0  0  0  0  0  0  0
   34.0953  -17.0132    0.0000 C   0  0  3  0  0  0  0  0  0  0  0  0
   32.9751  -17.7134    0.0000 C   0  0  0  0  0  0  0  0  0  0  0  0
   35.2856  -17.7134    0.0000 C   0  0  0  0  0  0  0  0  0  0  0  0
   34.7955  -15.8930    0.0000 C   0  0  0  0  0  0  0  0  0  0  0  0
   33.3952  -15.8930    0.0000 O   0  0  0  0  0  0  0  0  0  0  0  0
   31.7849  -17.0832    0.0000 C   0  0  0  0  0  0  0  0  0  0  0  0
   35.2856  -19.1136    0.0000 C   0  0  0  0  0  0  0  0  0  0  0  0
   34.0953  -14.7027    0.0000 O   0  0  0  0  0  0  0  0  0  0  0  0
   36.3358  -15.8930    0.0000 O   0  0  0  0  0  0  0  0  0  0  0  0
   30.5246  -17.7834    0.0000 O   0  0  0  0  0  0  0  0  0  0  0  0
   31.7849  -15.7530    0.0000 O   0  0  0  0  0  0  0  0  0  0  0  0
   36.6859  -19.8838    0.0000 O   0  0  0  0  0  0  0  0  0  0  0  0
   34.0953  -19.8838    0.0000 O   0  0  0  0  0  0  0  0  0  0  0  0
   31.1500  -12.6000    0.0000 O   0  0  0  0  0  0  0  0  0  0  0  0
  2  3  1  0     0  0
  4  5  1  0     0  0
  5  3  1  0     0  0
  3  6  1  0     0  0
  4  6  1  0     0  0
  7  8  1  0     0  0
  8  9  1  0     0  0
  9 10  1  0     0  0
 10  4  1  0     0  0
  4 11  1  0     0  0
  7 11  1  0     0  0
  8 12  1  0     0  0
 13 12  1  6     0  0
 13 14  1  0     0  0
 14 15  1  0     0  0
 15 16  1  0     0  0
 16 17  1  0     0  0
 17 18  1  0     0  0
 13 18  1  0     0  0
 16 19  1  1     0  0
 19 20  1  0     0  0
 20 21  1  0     0  0
 21 22  1  0     0  0
 20 23  2  0     0  0
 20 24  2  0     0  0
  1  2  1  0     0  0
  2 25  2  0     0  0
 25 26  1  0     0  0
 26 27  2  0     0  0
 27 28  1  0     0  0
 28  1  2  0     0  0
 29 30  2  0     0  0
 30 31  1  0     0  0
 31 32  2  0     0  0
 32 33  1  0     0  0
 33 34  2  0     0  0
 29 34  1  0     0  0
 33 35  1  0     0  0
 35 36  1  0     0  0
 36 37  1  0     0  0
 35 38  2  0     0  0
 37 39  1  0     0  0
 36 40  1  0     0  0
 37 41  1  0     0  0
 40 42  1  0     0  0
 32 43  1  0     0  0
 29 44  1  0     0  0
 43  1  1  0     0  0
 45 46  1  0     0  0
 45 47  1  0     0  0
 45 48  1  0     0  0
 45 49  1  0     0  0
 46 50  1  0     0  0
 47 51  1  0     0  0
 48 52  1  0     0  0
 48 53  2  0     0  0
 50 54  1  0     0  0
 50 55  2  0     0  0
 51 56  1  0     0  0
 51 57  2  0     0  0
M  END
