 
 
 
 31 33  0  0  0  0  0  0  0  0999 V2000
   18.6602  -16.5636    0.0000 C   0  0  0  0  0  0  0  0  0  0  0  0
   18.6602  -15.1658    0.0000 C   0  0  0  0  0  0  0  0  0  0  0  0
   19.8483  -14.4669    0.0000 C   0  0  0  0  0  0  0  0  0  0  0  0
   21.1063  -15.1658    0.0000 N   0  0  0  0  0  0  0  0  0  0  0  0
   21.1063  -16.5636    0.0000 C   0  0  0  0  0  0  0  0  0  0  0  0
   19.8483  -17.2625    0.0000 N   0  0  0  0  0  0  0  0  0  0  0  0
   17.4721  -17.2625    0.0000 C   0  0  0  0  0  0  0  0  0  0  0  0
   16.2141  -16.5636    0.0000 C   0  0  0  0  0  0  0  0  0  0  0  0
   16.2141  -15.1658    0.0000 N   0  0  0  0  0  0  0  0  0  0  0  0
   17.4721  -14.4669    0.0000 C   0  0  0  0  0  0  0  0  0  0  0  0
   15.0260  -14.4669    0.0000 C   0  0  0  0  0  0  0  0  0  0  0  0
   13.8379  -15.1658    0.0000 C   0  0  0  0  0  0  0  0  0  0  0  0
   13.8379  -16.5636    0.0000 C   0  0  0  0  0  0  0  0  0  0  0  0
   12.5799  -17.2625    0.0000 C   0  0  0  0  0  0  0  0  0  0  0  0
   11.3918  -16.5636    0.0000 C   0  0  0  0  0  0  0  0  0  0  0  0
   11.3918  -15.1658    0.0000 C   0  0  0  0  0  0  0  0  0  0  0  0
   12.5799  -14.4669    0.0000 C   0  0  0  0  0  0  0  0  0  0  0  0
   19.8483  -13.0692    0.0000 O   0  0  0  0  0  0  0  0  0  0  0  0
   22.2944  -14.4669    0.0000 C   0  0  0  0  0  0  0  0  0  0  0  0
   23.4825  -15.1658    0.0000 C   0  0  0  0  0  0  0  0  0  0  0  0
   24.6706  -14.4669    0.0000 C   0  0  0  0  0  0  0  0  0  0  0  0
   25.8587  -15.1658    0.0000 C   0  0  0  0  0  0  0  0  0  0  0  0
   25.8587  -16.5636    0.0000 C   0  0  0  0  0  0  0  0  0  0  0  0
   24.7405  -17.2625    0.0000 C   0  0  0  0  0  0  0  0  0  0  0  0
   23.4825  -16.5636    0.0000 C   0  0  0  0  0  0  0  0  0  0  0  0
   24.6706  -13.0692    0.0000 C   0  0  0  0  0  0  0  0  0  0  0  0
   22.1547  -17.4721    0.0000 N   0  0  0  0  0  0  0  0  0  0  0  0
   21.5257  -18.8000    0.0000 C   0  0  0  0  0  0  0  0  0  0  0  0
   20.1279  -18.6602    0.0000 C   0  0  0  0  0  0  0  0  0  0  0  0
   27.7200  -17.4300    0.0000 Cl  0  0  0  0  0  0  0  0  0  0  0  0
   27.7200  -18.8300    0.0000 Cl  0  0  0  0  0  0  0  0  0  0  0  0
  1  2  2  0     0  0
  2  3  1  0     0  0
  3  4  1  0     0  0
  4  5  1  0     0  0
  5  6  1  0     0  0
  1  6  1  0     0  0
  1  7  1  0     0  0
  7  8  1  0     0  0
  8  9  1  0     0  0
  9 10  1  0     0  0
  2 10  1  0     0  0
  9 11  1  0     0  0
 11 12  1  0     0  0
 12 13  2  0     0  0
 13 14  1  0     0  0
 14 15  2  0     0  0
 15 16  1  0     0  0
 16 17  2  0     0  0
 12 17  1  0     0  0
  3 18  2  0     0  0
  4 19  1  0     0  0
 19 20  1  0     0  0
 20 21  2  0     0  0
 21 22  1  0     0  0
 22 23  2  0     0  0
 23 24  1  0     0  0
 24 25  2  0     0  0
 20 25  1  0     0  0
 21 26  1  0     0  0
  5 27  2  0     0  0
 27 28  1  0     0  0
 28 29  1  0     0  0
  6 29  1  0     0  0
M  END
