 
 
 
 49 54  0  0  1  0  0  0  0  0999 V2000
   13.5538  -17.6972    0.0000 C   0  0  0  0  0  0  0  0  0  0  0  0
   13.5538  -19.1017    0.0000 C   0  0  0  0  0  0  0  0  0  0  0  0
   14.7477  -19.8040    0.0000 C   0  0  0  0  0  0  0  0  0  0  0  0
   16.0117  -19.1017    0.0000 C   0  0  0  0  0  0  0  0  0  0  0  0
   16.0117  -17.6972    0.0000 C   0  0  0  0  0  0  0  0  0  0  0  0
   14.7477  -16.9949    0.0000 C   0  0  0  0  0  0  0  0  0  0  0  0
   17.2056  -16.9949    0.0000 C   0  0  0  0  0  0  0  0  0  0  0  0
   18.3995  -17.6972    0.0000 C   0  0  0  0  0  0  0  0  0  0  0  0
   19.5933  -16.9949    0.0000 C   0  0  0  0  0  0  0  0  0  0  0  0
   19.5933  -15.5904    0.0000 N   0  0  0  0  0  0  0  0  0  0  0  0
   18.3995  -14.8881    0.0000 C   0  0  0  0  0  0  0  0  0  0  0  0
   17.2056  -15.5904    0.0000 C   0  0  0  0  0  0  0  0  0  0  0  0
   20.8574  -14.8881    0.0000 C   0  0  0  0  0  0  0  0  0  0  0  0
   22.0513  -15.5904    0.0000 C   0  0  0  0  0  0  0  0  0  0  0  0
   21.9810  -16.9949    0.0000 N   0  0  0  0  0  0  0  0  0  0  0  0
   23.3154  -17.4865    0.0000 C   0  0  0  0  0  0  0  0  0  0  0  0
   24.2283  -16.3629    0.0000 C   0  0  0  0  0  0  0  0  0  0  0  0
   23.3856  -15.1690    0.0000 N   0  0  0  0  0  0  0  0  0  0  0  0
   20.8574  -17.7674    0.0000 C   0  0  0  0  0  0  0  0  0  0  0  0
   20.8574  -19.1720    0.0000 C   0  0  0  0  0  0  0  0  0  0  0  0
   19.8742  -20.1551    0.0000 O   0  0  0  0  0  0  0  0  0  0  0  0
   20.8574  -21.1383    0.0000 C   0  0  0  0  0  0  0  0  0  0  0  0
   21.8406  -20.1551    0.0000 C   0  0  0  0  0  0  0  0  0  0  0  0
   23.8772  -18.7506    0.0000 C   0  0  0  0  0  0  0  0  0  0  0  0
   25.2115  -18.9613    0.0000 C   0  0  0  0  0  0  0  0  0  0  0  0
   26.1244  -17.8377    0.0000 C   0  0  0  0  0  0  0  0  0  0  0  0
   25.5626  -16.5736    0.0000 C   0  0  0  0  0  0  0  0  0  0  0  0
   25.7733  -20.2254    0.0000 C   0  0  0  0  0  0  0  0  0  0  0  0
   27.1076  -20.4360    0.0000 O   0  0  0  0  0  0  0  0  0  0  0  0
   24.8603  -21.3490    0.0000 O   0  0  0  0  0  0  0  0  0  0  0  0
   12.5004  -16.7842    0.0000 O   0  0  0  0  0  0  0  0  0  0  0  0
   13.0622  -15.5202    0.0000 C   0  0  0  0  0  0  0  0  0  0  0  0
   14.4668  -15.6606    0.0000 O   0  0  0  0  0  0  0  0  0  0  0  0
   12.3599  -14.3263    0.0000 C   0  0  0  0  0  0  0  0  0  0  0  0
   10.9554  -14.3263    0.0000 C   0  0  0  0  0  0  0  0  0  0  0  0
   10.2531  -13.1324    0.0000 C   0  0  0  0  0  0  0  0  0  0  0  0
   10.9554  -11.8684    0.0000 C   0  0  0  0  0  0  0  0  0  0  0  0
   12.3599  -11.8684    0.0000 C   0  0  0  0  0  0  0  0  0  0  0  0
   13.0622  -13.0622    0.0000 N   0  0  0  0  0  0  0  0  0  0  0  0
   10.2531  -10.6745    0.0000 Cl  0  0  0  0  0  0  0  0  0  0  0  0
   11.6577  -15.5202    0.0000 C   0  0  0  0  0  0  0  0  0  0  0  0
   30.6600  -15.4000    0.0000 C   0  0  0  0  0  0  0  0  0  0  0  0
   31.8724  -16.1000    0.0000 C   0  0  0  0  0  0  0  0  0  0  0  0
   29.4476  -16.1000    0.0000 O   0  0  0  0  0  0  0  0  0  0  0  0
   33.0679  -15.4096    0.0000 C   0  0  0  0  0  0  0  0  0  0  0  0
   34.2553  -16.0951    0.0000 O   0  0  0  0  0  0  0  0  0  0  0  0
   31.8724  -14.7000    0.0000 N   0  0  0  0  0  0  0  0  0  0  0  0
   31.8724  -17.5000    0.0000 C   0  0  0  0  0  0  0  0  0  0  0  0
   33.0680  -18.1903    0.0000 O   0  0  0  0  0  0  0  0  0  0  0  0
  1  2  2  0     0  0
  2  3  1  0     0  0
  3  4  2  0     0  0
  4  5  1  0     0  0
  5  6  2  0     0  0
  1  6  1  0     0  0
  5  7  1  0     0  0
  7  8  1  0     0  0
  8  9  1  0     0  0
  9 10  1  0     0  0
 10 11  1  0     0  0
 11 12  1  0     0  0
  7 12  1  0     0  0
 10 13  1  0     0  0
 13 14  1  0     0  0
 14 15  1  0     0  0
 15 16  1  0     0  0
 16 17  2  0     0  0
 17 18  1  0     0  0
 14 18  2  0     0  0
 15 19  1  0     0  0
 20 19  1  6     0  0
 20 21  1  0     0  0
 21 22  1  0     0  0
 22 23  1  0     0  0
 20 23  1  0     0  0
 16 24  1  0     0  0
 24 25  2  0     0  0
 25 26  1  0     0  0
 26 27  2  0     0  0
 17 27  1  0     0  0
 25 28  1  0     0  0
 28 29  1  0     0  0
 28 30  2  0     0  0
  1 31  1  0     0  0
 31 32  1  0     0  0
 32 33  1  0     0  0
  6 33  1  0     0  0
 32 34  1  1     0  0
 34 35  2  0     0  0
 35 36  1  0     0  0
 36 37  2  0     0  0
 37 38  1  0     0  0
 38 39  2  0     0  0
 34 39  1  0     0  0
 37 40  1  0     0  0
 32 41  1  6     0  0
 42 43  1  0     0  0
 42 44  1  0     0  0
 43 45  1  0     0  0
 45 46  1  0     0  0
 43 47  1  0     0  0
 43 48  1  0     0  0
 48 49  1  0     0  0
M  END
