 
 
 
 27 27  0  0  0  0  0  0  0  0999 V2000
   11.9675  -17.0065    0.0000 C   0  0  0  0  0  0  0  0  0  0  0  0
   11.9675  -18.4062    0.0000 C   0  0  0  0  0  0  0  0  0  0  0  0
   13.2273  -19.1060    0.0000 C   0  0  0  0  0  0  0  0  0  0  0  0
   14.4170  -18.4062    0.0000 C   0  0  0  0  0  0  0  0  0  0  0  0
   14.4170  -17.0065    0.0000 C   0  0  0  0  0  0  0  0  0  0  0  0
   13.2273  -16.3066    0.0000 C   0  0  0  0  0  0  0  0  0  0  0  0
   15.6768  -19.1060    0.0000 C   0  0  0  0  0  0  0  0  0  0  0  0
   16.8665  -17.0065    0.0000 C   0  0  0  0  0  0  0  0  0  0  0  0
   15.6768  -16.3066    0.0000 C   0  0  0  0  0  0  0  0  0  0  0  0
   18.0563  -16.3066    0.0000 C   0  0  0  0  0  0  0  0  0  0  0  0
   19.3160  -17.0065    0.0000 C   0  0  0  0  0  0  0  0  0  0  0  0
   20.5058  -16.3066    0.0000 C   0  0  0  0  0  0  0  0  0  0  0  0
   18.0563  -14.9069    0.0000 C   0  0  0  0  0  0  0  0  0  0  0  0
   21.6955  -17.0065    0.0000 C   0  0  0  0  0  0  0  0  0  0  0  0
   22.9552  -16.3066    0.0000 C   0  0  0  0  0  0  0  0  0  0  0  0
   24.1450  -17.0065    0.0000 C   0  0  0  0  0  0  0  0  0  0  0  0
   22.9552  -14.9069    0.0000 C   0  0  0  0  0  0  0  0  0  0  0  0
   14.2071  -15.3268    0.0000 C   0  0  0  0  0  0  0  0  0  0  0  0
   12.2475  -15.3268    0.0000 C   0  0  0  0  0  0  0  0  0  0  0  0
   24.1450  -14.2071    0.0000 C   0  0  0  0  0  0  0  0  0  0  0  0
   24.1450  -12.8073    0.0000 O   0  0  0  0  0  0  0  0  0  0  0  0
   25.3348  -17.7063    0.0000 H   1  0  0  0  0  0  0  0  0  0  0  0
   23.4451  -18.1962    0.0000 H   1  0  0  0  0  0  0  0  0  0  0  0
   24.8449  -15.8167    0.0000 H   1  0  0  0  0  0  0  0  0  0  0  0
   25.3600  -12.1058    0.0000 C   0  0  0  0  0  0  0  0  0  0  0  0
   26.5591  -12.7983    0.0000 C   0  0  0  0  0  0  0  0  0  0  0  0
   25.3600  -10.7101    0.0000 O   0  0  0  0  0  0  0  0  0  0  0  0
  1  2  1  0     0  0
  2  3  1  0     0  0
  3  4  1  0     0  0
  4  5  2  0     0  0
  5  6  1  0     0  0
  1  6  1  0     0  0
  4  7  1  0     0  0
  8  9  2  0     0  0
  5  9  1  0     0  0
  8 10  1  0     0  0
 10 11  2  0     0  0
 11 12  1  0     0  0
 10 13  1  0     0  0
 12 14  2  0     0  0
 14 15  1  0     0  0
 15 16  1  0     0  0
 15 17  2  0     0  0
  6 18  1  0     0  0
  6 19  1  0     0  0
 17 20  1  0     0  0
 20 21  1  0     0  0
 16 22  1  0     0  0
 16 23  1  0     0  0
 16 24  1  0     0  0
 21 25  1  0     0  0
 25 26  1  0     0  0
 25 27  2  0     0  0
M  ISO  3  22   2  23   2  24   2
M  END
