 
 
 
106113  0  0  1  0  0  0  0  0999 V2000
   10.2915  -32.2037    0.0000 C   0  0  0  0  0  0  0  0  0  0  0  0
   10.2915  -33.6041    0.0000 C   0  0  0  0  0  0  0  0  0  0  0  0
   11.5519  -34.3043    0.0000 C   0  0  0  0  0  0  0  0  0  0  0  0
   12.6722  -33.6041    0.0000 C   0  0  0  0  0  0  0  0  0  0  0  0
   12.6722  -32.2037    0.0000 N   0  0  0  0  0  0  0  0  0  0  0  0
   11.5519  -31.4334    0.0000 N   0  0  0  0  0  0  0  0  0  0  0  0
   14.0026  -34.0242    0.0000 C   0  0  0  0  0  0  0  0  0  0  0  0
   14.8429  -32.9039    0.0000 C   0  0  0  0  0  0  0  0  0  0  0  0
   14.0026  -31.7135    0.0000 C   0  0  0  0  0  0  0  0  0  0  0  0
   16.1733  -32.9039    0.0000 C   0  0  0  0  0  0  0  0  0  0  0  0
   16.9435  -34.0942    0.0000 C   0  0  0  0  0  0  0  0  0  0  0  0
   18.3439  -34.0942    0.0000 C   0  0  0  0  0  0  0  0  0  0  0  0
   19.0441  -32.9039    0.0000 C   0  0  0  0  0  0  0  0  0  0  0  0
   18.3439  -31.6435    0.0000 C   0  0  0  0  0  0  0  0  0  0  0  0
   16.9435  -31.6435    0.0000 N   0  0  0  0  0  0  0  0  0  0  0  0
   20.4445  -32.9039    0.0000 C   0  0  0  0  0  0  0  0  0  0  0  0
   21.1447  -34.0942    0.0000 C   0  0  0  0  0  0  0  0  0  0  0  0
   22.5451  -34.0942    0.0000 C   0  0  0  0  0  0  0  0  0  0  0  0
   23.2453  -32.9039    0.0000 N   0  0  0  0  0  0  0  0  0  0  0  0
   22.5451  -31.6435    0.0000 C   0  0  0  0  0  0  0  0  0  0  0  0
   21.1447  -31.6435    0.0000 C   0  0  0  0  0  0  0  0  0  0  0  0
   24.6458  -32.9039    0.0000 C   0  0  0  0  0  0  0  0  0  0  0  0
   25.3460  -34.0942    0.0000 C   0  0  0  0  0  0  0  0  0  0  0  0
   25.3460  -31.6435    0.0000 C   0  0  0  0  0  0  0  0  0  0  0  0
   19.7443  -34.0942    0.0000 O   0  0  0  0  0  0  0  0  0  0  0  0
   19.7443  -35.4946    0.0000 C   0  0  0  0  0  0  0  0  0  0  0  0
   18.4839  -36.1948    0.0000 C   0  0  0  0  0  0  0  0  0  0  0  0
   11.5519  -35.7047    0.0000 N   0  0  0  0  0  0  0  0  0  0  0  0
   10.2915  -36.4049    0.0000 C   0  0  0  0  0  0  0  0  0  0  0  0
   10.2915  -37.8053    0.0000 C   0  0  0  0  0  0  0  0  0  0  0  0
   11.4819  -38.5055    0.0000 N   0  0  0  0  0  0  0  0  0  0  0  0
   12.6722  -37.8053    0.0000 C   0  0  0  0  0  0  0  0  0  0  0  0
   12.6722  -36.4049    0.0000 C   0  0  0  0  0  0  0  0  0  0  0  0
   11.4819  -39.9059    0.0000 C   0  0  0  0  0  0  0  0  0  0  0  0
   12.6722  -40.6061    0.0000 O   0  0  0  0  0  0  0  0  0  0  0  0
   10.2915  -40.6061    0.0000 O   0  0  0  0  0  0  0  0  0  0  0  0
   13.8626  -39.9059    0.0000 C   0  0  0  0  0  0  0  0  0  0  0  0
   15.1229  -40.4661    0.0000 C   0  0  0  0  0  0  0  0  0  0  0  0
   16.0332  -39.4158    0.0000 O   0  0  0  0  0  0  0  0  0  0  0  0
   15.3330  -38.2254    0.0000 C   0  0  0  0  0  0  0  0  0  0  0  0
   14.0026  -38.5055    0.0000 C   0  0  0  0  0  0  0  0  0  0  0  0
   31.3408  -35.7866    0.0000 O   0  0  0  0  0  0  0  0  0  0  0  0
   32.5427  -36.4936    0.0000 C   0  0  0  0  0  0  0  0  0  0  0  0
   33.7446  -35.7866    0.0000 C   0  0  0  0  0  0  0  0  0  0  0  0
   32.5427  -37.9076    0.0000 O   0  0  0  0  0  0  0  0  0  0  0  0
   34.9465  -36.4936    0.0000 C   0  0  0  0  0  0  0  0  0  0  0  0
   36.1484  -35.7866    0.0000 C   0  0  0  0  0  0  0  0  0  0  0  0
   37.3502  -36.4936    0.0000 O   0  0  0  0  0  0  0  0  0  0  0  0
   36.1484  -34.3726    0.0000 O   0  0  0  0  0  0  0  0  0  0  0  0
   10.2915  -32.2037    0.0000 C   0  0  0  0  0  0  0  0  0  0  0  0
   10.2915  -33.6041    0.0000 C   0  0  0  0  0  0  0  0  0  0  0  0
   11.5519  -34.3043    0.0000 C   0  0  0  0  0  0  0  0  0  0  0  0
   12.6722  -33.6041    0.0000 C   0  0  0  0  0  0  0  0  0  0  0  0
   12.6722  -32.2037    0.0000 N   0  0  0  0  0  0  0  0  0  0  0  0
   11.5519  -31.4334    0.0000 N   0  0  0  0  0  0  0  0  0  0  0  0
   14.0026  -31.7135    0.0000 C   0  0  0  0  0  0  0  0  0  0  0  0
   14.8429  -32.9039    0.0000 C   0  0  0  0  0  0  0  0  0  0  0  0
   14.0026  -34.0242    0.0000 C   0  0  0  0  0  0  0  0  0  0  0  0
   16.1733  -32.9039    0.0000 C   0  0  0  0  0  0  0  0  0  0  0  0
   16.9435  -34.0942    0.0000 C   0  0  0  0  0  0  0  0  0  0  0  0
   18.3439  -34.0942    0.0000 C   0  0  0  0  0  0  0  0  0  0  0  0
   19.0441  -32.9039    0.0000 C   0  0  0  0  0  0  0  0  0  0  0  0
   18.3439  -31.6435    0.0000 C   0  0  0  0  0  0  0  0  0  0  0  0
   16.9435  -31.6435    0.0000 N   0  0  0  0  0  0  0  0  0  0  0  0
   20.4445  -32.9039    0.0000 C   0  0  0  0  0  0  0  0  0  0  0  0
   21.1447  -34.0942    0.0000 C   0  0  0  0  0  0  0  0  0  0  0  0
   22.5451  -34.0942    0.0000 C   0  0  0  0  0  0  0  0  0  0  0  0
   23.2453  -32.9039    0.0000 N   0  0  0  0  0  0  0  0  0  0  0  0
   22.5451  -31.6435    0.0000 C   0  0  0  0  0  0  0  0  0  0  0  0
   21.1447  -31.6435    0.0000 C   0  0  0  0  0  0  0  0  0  0  0  0
   24.6458  -32.9039    0.0000 C   0  0  0  0  0  0  0  0  0  0  0  0
   25.3460  -34.0942    0.0000 C   0  0  0  0  0  0  0  0  0  0  0  0
   25.3460  -31.6435    0.0000 C   0  0  0  0  0  0  0  0  0  0  0  0
   19.7443  -34.0942    0.0000 O   0  0  0  0  0  0  0  0  0  0  0  0
   19.7443  -35.4946    0.0000 C   0  0  0  0  0  0  0  0  0  0  0  0
   18.4839  -36.1948    0.0000 C   0  0  0  0  0  0  0  0  0  0  0  0
   11.5519  -35.7047    0.0000 N   0  0  0  0  0  0  0  0  0  0  0  0
   10.2915  -36.4049    0.0000 C   0  0  0  0  0  0  0  0  0  0  0  0
   10.2915  -37.8053    0.0000 C   0  0  0  0  0  0  0  0  0  0  0  0
   11.4819  -38.5055    0.0000 N   0  0  0  0  0  0  0  0  0  0  0  0
   12.6722  -37.8053    0.0000 C   0  0  0  0  0  0  0  0  0  0  0  0
   12.6722  -36.4049    0.0000 C   0  0  0  0  0  0  0  0  0  0  0  0
   11.4819  -39.9059    0.0000 C   0  0  0  0  0  0  0  0  0  0  0  0
   12.6722  -40.6061    0.0000 O   0  0  0  0  0  0  0  0  0  0  0  0
   13.8626  -39.9059    0.0000 C   0  0  0  0  0  0  0  0  0  0  0  0
   15.1229  -40.4661    0.0000 C   0  0  0  0  0  0  0  0  0  0  0  0
   16.0332  -39.4158    0.0000 O   0  0  0  0  0  0  0  0  0  0  0  0
   15.3330  -38.2254    0.0000 C   0  0  0  0  0  0  0  0  0  0  0  0
   14.0026  -38.5055    0.0000 C   0  0  0  0  0  0  0  0  0  0  0  0
   10.2915  -40.6061    0.0000 O   0  0  0  0  0  0  0  0  0  0  0  0
   31.3408  -35.7866    0.0000 O   0  0  0  0  0  0  0  0  0  0  0  0
   32.5427  -36.4936    0.0000 C   0  0  0  0  0  0  0  0  0  0  0  0
   33.7446  -35.7866    0.0000 C   0  0  0  0  0  0  0  0  0  0  0  0
   34.9465  -36.4936    0.0000 C   0  0  0  0  0  0  0  0  0  0  0  0
   36.1484  -35.7866    0.0000 C   0  0  0  0  0  0  0  0  0  0  0  0
   37.3502  -36.4936    0.0000 O   0  0  0  0  0  0  0  0  0  0  0  0
   36.1484  -34.3726    0.0000 O   0  0  0  0  0  0  0  0  0  0  0  0
   32.5427  -37.9076    0.0000 O   0  0  0  0  0  0  0  0  0  0  0  0
   31.3408  -35.7866    0.0000 O   0  0  0  0  0  0  0  0  0  0  0  0
   32.5427  -36.4936    0.0000 C   0  0  0  0  0  0  0  0  0  0  0  0
   33.7446  -35.7866    0.0000 C   0  0  0  0  0  0  0  0  0  0  0  0
   34.9465  -36.4936    0.0000 C   0  0  0  0  0  0  0  0  0  0  0  0
   36.1484  -35.7866    0.0000 C   0  0  0  0  0  0  0  0  0  0  0  0
   37.3502  -36.4936    0.0000 O   0  0  0  0  0  0  0  0  0  0  0  0
   36.1484  -34.3726    0.0000 O   0  0  0  0  0  0  0  0  0  0  0  0
   32.5427  -37.9076    0.0000 O   0  0  0  0  0  0  0  0  0  0  0  0
  1  2  1  0     0  0
  2  3  2  0     0  0
  3  4  1  0     0  0
  4  5  1  0     0  0
  5  6  1  0     0  0
  1  6  2  0     0  0
  4  7  2  0     0  0
  7  8  1  0     0  0
  8  9  2  0     0  0
  5  9  1  0     0  0
  8 10  1  0     0  0
 10 11  2  0     0  0
 11 12  1  0     0  0
 12 13  2  0     0  0
 13 14  1  0     0  0
 14 15  2  0     0  0
 10 15  1  0     0  0
 13 16  1  0     0  0
 16 17  1  0     0  0
 17 18  1  0     0  0
 18 19  1  0     0  0
 19 20  1  0     0  0
 20 21  1  0     0  0
 16 21  1  0     0  0
 19 22  1  0     0  0
 22 23  1  0     0  0
 22 24  1  0     0  0
 16 25  1  0     0  0
 25 26  1  0     0  0
 26 27  1  0     0  0
  3 28  1  0     0  0
 28 29  1  0     0  0
 29 30  1  0     0  0
 30 31  1  0     0  0
 31 32  1  0     0  0
 32 33  1  0     0  0
 28 33  1  0     0  0
 31 34  1  0     0  0
 34 35  1  0     0  0
 34 36  2  0     0  0
 37 35  1  6     0  0
 37 38  1  0     0  0
 38 39  1  0     0  0
 39 40  1  0     0  0
 40 41  1  0     0  0
 37 41  1  0     0  0
 50 51  1  0     0  0
 51 52  2  0     0  0
 52 53  1  0     0  0
 53 54  1  0     0  0
 54 55  1  0     0  0
 50 55  2  0     0  0
 53 58  2  0     0  0
 58 57  1  0     0  0
 57 56  2  0     0  0
 54 56  1  0     0  0
 57 59  1  0     0  0
 59 60  2  0     0  0
 60 61  1  0     0  0
 61 62  2  0     0  0
 62 63  1  0     0  0
 63 64  2  0     0  0
 59 64  1  0     0  0
 62 65  1  0     0  0
 65 66  1  0     0  0
 66 67  1  0     0  0
 67 68  1  0     0  0
 68 69  1  0     0  0
 69 70  1  0     0  0
 65 70  1  0     0  0
 68 71  1  0     0  0
 71 72  1  0     0  0
 71 73  1  0     0  0
 65 74  1  0     0  0
 74 75  1  0     0  0
 75 76  1  0     0  0
 52 77  1  0     0  0
 77 78  1  0     0  0
 78 79  1  0     0  0
 79 80  1  0     0  0
 80 81  1  0     0  0
 81 82  1  0     0  0
 77 82  1  0     0  0
 80 83  1  0     0  0
 83 84  1  0     0  0
 83 90  2  0     0  0
 85 84  1  6     0  0
 85 86  1  0     0  0
 86 87  1  0     0  0
 87 88  1  0     0  0
 88 89  1  0     0  0
 85 89  1  0     0  0
 42 43  1  0     0  0
 43 44  1  0     0  0
 43 45  2  0     0  0
 44 46  1  0     0  0
 46 47  1  0     0  0
 47 48  1  0     0  0
 47 49  2  0     0  0
 91 92  1  0     0  0
 92 93  1  0     0  0
 92 98  2  0     0  0
 93 94  1  0     0  0
 94 95  1  0     0  0
 95 96  1  0     0  0
 95 97  2  0     0  0
 99100  1  0     0  0
100101  1  0     0  0
100106  2  0     0  0
101102  1  0     0  0
102103  1  0     0  0
103104  1  0     0  0
103105  2  0     0  0
M  STY  2   1 MUL   2 MUL
M  SLB  2   1   1   2   2
M  SCN  2   1 HT    2 HT 
M  SAL   1 15   1   2   3   4   5   6   7   8   9  10  11  12  13  14  15
M  SAL   1 15  16  17  18  19  20  21  22  23  24  25  26  27  28  29  30
M  SAL   1 15  31  32  33  34  35  36  37  38  39  40  41  50  51  52  53
M  SAL   1 15  54  55  56  57  58  59  60  61  62  63  64  65  66  67  68
M  SAL   1 15  69  70  71  72  73  74  75  76  77  78  79  80  81  82  83
M  SAL   1  7  84  85  86  87  88  89  90
M  SPA   1 15   1   2   3   4   5   6   9   8   7  10  11  12  13  14  15
M  SPA   1 15  16  17  18  19  20  21  22  23  24  25  26  27  28  29  30
M  SPA   1 11  31  32  33  34  35  37  38  39  40  41  36
M  SDI   1  4    8.8200  -41.5100    8.8200  -30.5900
M  SDI   1  4   27.5800  -30.5900   27.5800  -41.5100
M  SMT   1 2
M  SAL   2 15  42  43  44  45  46  47  48  49  91  92  93  94  95  96  97
M  SAL   2  9  98  99 100 101 102 103 104 105 106
M  SPA   2  8  42  43  44  46  47  48  49  45
M  SDI   2  4   29.9600  -39.4800   29.9600  -33.4600
M  SDI   2  4   38.9900  -33.4600   38.9900  -39.4800
M  SMT   2 3
M  END
