 
 
 
 24 26  0  0  0  0  0  0  0  0999 V2000
   14.9856  -14.2153    0.0000 C   0  0  0  0  0  0  0  0  0  0  0  0
   14.9856  -15.6158    0.0000 C   0  0  0  0  0  0  0  0  0  0  0  0
   16.1761  -16.3161    0.0000 C   0  0  0  0  0  0  0  0  0  0  0  0
   17.4365  -15.6158    0.0000 C   0  0  0  0  0  0  0  0  0  0  0  0
   17.4365  -14.2153    0.0000 C   0  0  0  0  0  0  0  0  0  0  0  0
   16.1761  -13.5151    0.0000 C   0  0  0  0  0  0  0  0  0  0  0  0
   18.6270  -13.5151    0.0000 C   0  0  0  0  0  0  0  0  0  0  0  0
   19.8874  -14.2153    0.0000 C   0  0  0  0  0  0  0  0  0  0  0  0
   21.0779  -13.5151    0.0000 C   0  0  0  0  0  0  0  0  0  0  0  0
   19.8874  -15.6158    0.0000 N   0  3  0  0  0  0  0  0  0  0  0  0
   18.7528  -16.4403    0.0000 N   0  5  0  0  0  0  0  0  0  0  0  0
   19.1862  -17.7742    0.0000 O   0  0  0  0  0  0  0  0  0  0  0  0
   20.5888  -17.7742    0.0000 C   0  0  0  0  0  0  0  0  0  0  0  0
   21.0221  -16.4402    0.0000 C   0  0  0  0  0  0  0  0  0  0  0  0
   21.5256  -18.8145    0.0000 N   0  0  0  0  0  0  0  0  0  0  0  0
   22.8950  -18.5235    0.0000 C   0  0  0  0  0  0  0  0  0  0  0  0
   23.3284  -17.1895    0.0000 O   0  0  0  0  0  0  0  0  0  0  0  0
   23.8318  -19.5638    0.0000 N   0  0  0  0  0  0  0  0  0  0  0  0
   25.2012  -19.2727    0.0000 C   0  0  0  0  0  0  0  0  0  0  0  0
   25.6346  -17.9388    0.0000 C   0  0  0  0  0  0  0  0  0  0  0  0
   26.1380  -20.3131    0.0000 C   0  0  0  0  0  0  0  0  0  0  0  0
   27.5074  -20.0220    0.0000 C   0  0  0  0  0  0  0  0  0  0  0  0
   27.9408  -18.6881    0.0000 C   0  0  0  0  0  0  0  0  0  0  0  0
   27.0040  -17.6477    0.0000 C   0  0  0  0  0  0  0  0  0  0  0  0
  1  2  2  0     0  0
  2  3  1  0     0  0
  3  4  2  0     0  0
  4  5  1  0     0  0
  5  6  2  0     0  0
  1  6  1  0     0  0
  5  7  1  0     0  0
  7  8  1  0     0  0
  8  9  1  0     0  0
  8 10  1  0     0  0
 10 11  1  0     0  0
 11 12  1  0     0  0
 12 13  1  0     0  0
 13 14  1  0     0  0
 10 14  2  0     0  0
 13 15  2  0     0  0
 15 16  1  0     0  0
 16 17  2  0     0  0
 16 18  1  0     0  0
 18 19  1  0     0  0
 19 20  1  0     0  0
 19 21  2  0     0  0
 21 22  1  0     0  0
 22 23  2  0     0  0
 23 24  1  0     0  0
 20 24  2  0     0  0
M  CHG  2  10   1  11  -1
M  END
