 
 
 
 56 62  0  0  1  0  0  0  0  0999 V2000
   24.2200  -34.5800    0.0000 C   0  0  0  0  0  0  0  0  0  0  0  0
   24.2200  -35.9800    0.0000 C   0  0  0  0  0  0  0  0  0  0  0  0
   25.4100  -36.6800    0.0000 C   0  0  0  0  0  0  0  0  0  0  0  0
   26.6700  -35.9800    0.0000 C   0  0  0  0  0  0  0  0  0  0  0  0
   26.6700  -34.5800    0.0000 C   0  0  0  0  0  0  0  0  0  0  0  0
   25.4100  -33.8800    0.0000 C   0  0  0  0  0  0  0  0  0  0  0  0
   27.8600  -36.6800    0.0000 C   0  0  0  0  0  0  0  0  0  0  0  0
   29.0500  -35.9800    0.0000 C   0  0  0  0  0  0  0  0  0  0  0  0
   29.0500  -34.5800    0.0000 C   0  0  0  0  0  0  0  0  0  0  0  0
   27.8600  -33.8800    0.0000 C   0  0  0  0  0  0  0  0  0  0  0  0
   23.0300  -36.6800    0.0000 C   0  0  0  0  0  0  0  0  0  0  0  0
   21.8400  -35.9800    0.0000 C   0  0  0  0  0  0  0  0  0  0  0  0
   20.5800  -36.6800    0.0000 C   0  0  0  0  0  0  0  0  0  0  0  0
   20.5800  -38.0800    0.0000 C   0  0  0  0  0  0  0  0  0  0  0  0
   21.7700  -38.7800    0.0000 C   0  0  0  0  0  0  0  0  0  0  0  0
   23.0300  -38.0800    0.0000 C   0  0  0  0  0  0  0  0  0  0  0  0
   19.2500  -36.2600    0.0000 N   0  0  0  0  0  0  0  0  0  0  0  0
   18.4800  -37.3800    0.0000 C   0  0  0  0  0  0  0  0  0  0  0  0
   19.2500  -38.5000    0.0000 N   0  0  0  0  0  0  0  0  0  0  0  0
   30.2400  -33.8800    0.0000 C   0  0  0  0  0  0  0  0  0  0  0  0
   33.1100  -34.3000    0.0000 C   0  0  0  0  0  0  0  0  0  0  0  0
   34.3000  -35.0000    0.0000 O   0  0  0  0  0  0  0  0  0  0  0  0
   31.9200  -35.0000    0.0000 O   0  0  0  0  0  0  0  0  0  0  0  0
   31.9200  -36.4000    0.0000 C   0  0  0  0  0  0  0  0  0  0  0  0
   33.1100  -32.9000    0.0000 N   0  0  0  0  0  0  0  0  0  0  0  0
   34.3000  -32.2000    0.0000 C   0  0  0  0  0  0  0  0  0  0  0  0
   35.4900  -32.9000    0.0000 C   0  0  0  0  0  0  0  0  0  0  0  0
   36.6800  -32.2000    0.0000 C   0  0  0  0  0  0  0  0  0  0  0  0
   35.4900  -34.3000    0.0000 C   0  0  0  0  0  0  0  0  0  0  0  0
   34.3000  -30.8000    0.0000 C   0  0  0  0  0  0  0  0  0  0  0  0
   35.4900  -30.1000    0.0000 O   0  0  0  0  0  0  0  0  0  0  0  0
   32.9700  -29.9600    0.0000 N   0  0  0  0  0  0  0  0  0  0  0  0
   32.8300  -28.5600    0.0000 C   0  0  0  0  0  0  0  0  0  0  0  0
   31.4300  -28.2800    0.0000 C   0  0  0  0  0  0  0  0  0  0  0  0
   30.7300  -29.4700    0.0000 C   0  0  0  0  0  0  0  0  0  0  0  0
   31.7100  -30.5200    0.0000 C   0  0  0  0  0  0  0  0  0  0  0  0
   31.3600  -31.8500    0.0000 C   0  0  0  0  0  0  0  0  0  0  0  0
   30.1000  -32.4800    0.0000 N   0  0  0  0  0  0  0  0  0  0  0  0
   31.6400  -34.1600    0.0000 C   0  0  0  0  0  0  0  0  0  0  0  0
   32.3400  -32.9700    0.0000 N   0  0  0  0  0  0  0  0  0  0  0  0
   17.0800  -37.3800    0.0000 C   0  0  0  0  0  0  0  0  0  0  0  0
   16.2400  -36.2600    0.0000 N   0  0  0  0  0  0  0  0  0  0  0  0
   14.9100  -36.6800    0.0000 C   0  0  0  0  0  0  0  0  0  0  0  0
   14.9100  -38.0800    0.0000 C   0  0  0  0  0  0  0  0  0  0  0  0
   16.2400  -38.5000    0.0000 C   0  0  0  0  0  0  0  0  0  0  0  0
   16.2400  -34.8600    0.0000 C   0  0  0  0  0  0  0  0  0  0  0  0
   15.0500  -34.1600    0.0000 O   0  0  0  0  0  0  0  0  0  0  0  0
   17.5000  -34.1600    0.0000 C   0  0  0  0  0  0  0  0  0  0  0  0
   18.6900  -34.9300    0.0000 N   0  0  0  0  0  0  0  0  0  0  0  0
   17.5000  -32.7600    0.0000 C   0  0  0  0  0  0  0  0  0  0  0  0
   19.8800  -34.2300    0.0000 C   0  0  0  0  0  0  0  0  0  0  0  0
   21.0700  -34.9300    0.0000 O   0  0  0  0  0  0  0  0  0  0  0  0
   22.3300  -34.2300    0.0000 C   0  0  0  0  0  0  0  0  0  0  0  0
   19.8800  -32.8300    0.0000 O   0  0  0  0  0  0  0  0  0  0  0  0
   18.6900  -32.1300    0.0000 C   0  0  0  0  0  0  0  0  0  0  0  0
   16.3100  -32.1300    0.0000 C   0  0  0  0  0  0  0  0  0  0  0  0
  1  2  2  0     0  0
  2  3  1  0     0  0
  3  4  2  0     0  0
  4  5  1  0     0  0
  5  6  2  0     0  0
  1  6  1  0     0  0
  4  7  1  0     0  0
  7  8  2  0     0  0
  8  9  1  0     0  0
  9 10  2  0     0  0
  5 10  1  0     0  0
  2 11  1  0     0  0
 11 12  2  0     0  0
 12 13  1  0     0  0
 13 14  2  0     0  0
 14 15  1  0     0  0
 15 16  2  0     0  0
 11 16  1  0     0  0
 13 17  1  0     0  0
 17 18  2  0     0  0
 18 19  1  0     0  0
 14 19  1  0     0  0
  9 20  1  0     0  0
 21 22  2  0     0  0
 21 23  1  0     0  0
 23 24  1  0     0  0
 21 25  1  0     0  0
 25 26  1  0     0  0
 26 27  1  6     0  0
 27 28  1  0     0  0
 27 29  1  0     0  0
 26 30  1  0     0  0
 30 31  2  0     0  0
 30 32  1  0     0  0
 32 33  1  0     0  0
 33 34  1  0     0  0
 34 35  1  0     0  0
 35 36  1  0     0  0
 32 36  1  0     0  0
 36 37  1  6     0  0
 37 38  1  0     0  0
 38 20  1  0     0  0
 20 39  2  0     0  0
 39 40  1  0     0  0
 37 40  2  0     0  0
 41 18  1  6     0  0
 41 42  1  0     0  0
 42 43  1  0     0  0
 43 44  1  0     0  0
 44 45  1  0     0  0
 41 45  1  0     0  0
 46 47  2  0     0  0
 46 48  1  0     0  0
 48 49  1  0     0  0
 48 50  1  6     0  0
 49 51  1  0     0  0
 51 52  1  0     0  0
 52 53  1  0     0  0
 51 54  2  0     0  0
 50 55  1  0     0  0
 50 56  1  0     0  0
 46 42  1  0     0  0
M  END
