 
 
 
 36 39  0  0  1  0  0  0  0  0999 V2000
    9.5758  -17.7483    0.0000 N   0  0  0  0  0  0  0  0  0  0  0  0
    9.5758  -16.3402    0.0000 C   0  0  0  0  0  0  0  0  0  0  0  0
   10.7727  -15.6361    0.0000 C   0  0  0  0  0  0  0  0  0  0  0  0
   12.0401  -16.3402    0.0000 C   0  0  0  0  0  0  0  0  0  0  0  0
   12.0401  -17.7483    0.0000 N   0  0  0  0  0  0  0  0  0  0  0  0
   10.7727  -18.4524    0.0000 C   0  0  0  0  0  0  0  0  0  0  0  0
    8.3789  -15.6361    0.0000 C   0  0  0  0  0  0  0  0  0  0  0  0
    8.3789  -14.2280    0.0000 C   0  0  0  0  0  0  0  0  0  0  0  0
    9.5758  -13.5239    0.0000 C   0  0  0  0  0  0  0  0  0  0  0  0
   10.7727  -14.2280    0.0000 C   0  0  0  0  0  0  0  0  0  0  0  0
   13.2370  -15.6361    0.0000 N   0  0  0  0  0  0  0  0  0  0  0  0
   14.4339  -16.3402    0.0000 C   0  0  0  0  0  0  0  0  0  0  0  0
   15.6308  -15.6361    0.0000 C   0  0  0  0  0  0  0  0  0  0  0  0
   16.8278  -16.3402    0.0000 C   0  0  0  0  0  0  0  0  0  0  0  0
   18.0247  -15.6361    0.0000 N   0  0  0  0  0  0  0  0  0  0  0  0
   19.2216  -16.3402    0.0000 C   0  0  0  0  0  0  0  0  0  0  0  0
   18.0247  -14.2280    0.0000 C   0  0  0  0  0  0  0  0  0  0  0  0
   14.4339  -17.7483    0.0000 C   0  0  0  0  0  0  0  0  0  0  0  0
   19.2216  -13.5239    0.0000 C   0  0  0  0  0  0  0  0  0  0  0  0
   20.4185  -14.2280    0.0000 O   0  0  0  0  0  0  0  0  0  0  0  0
   21.6155  -13.5239    0.0000 C   0  0  0  0  0  0  0  0  0  0  0  0
   20.4185  -15.6361    0.0000 C   0  0  0  0  0  0  0  0  0  0  0  0
   21.6155  -16.3402    0.0000 C   0  0  0  0  0  0  0  0  0  0  0  0
   22.8124  -15.6361    0.0000 C   0  0  0  0  0  0  0  0  0  0  0  0
   24.0093  -16.3402    0.0000 C   0  0  0  0  0  0  0  0  0  0  0  0
   25.2062  -15.6361    0.0000 N   0  0  0  0  0  0  0  0  0  0  0  0
   26.4736  -16.3402    0.0000 C   0  0  0  0  0  0  0  0  0  0  0  0
   26.4736  -17.7483    0.0000 C   0  0  0  0  0  0  0  0  0  0  0  0
   25.2766  -18.4524    0.0000 C   0  0  0  0  0  0  0  0  0  0  0  0
   24.0093  -17.7483    0.0000 C   0  0  0  0  0  0  0  0  0  0  0  0
   27.6705  -15.6361    0.0000 N   0  0  0  0  0  0  0  0  0  0  0  0
   28.8674  -16.3402    0.0000 C   0  0  0  0  0  0  0  0  0  0  0  0
   28.8674  -17.7483    0.0000 C   0  0  0  0  0  0  0  0  0  0  0  0
   27.6705  -18.4524    0.0000 C   0  0  0  0  0  0  0  0  0  0  0  0
   13.1973  -18.4618    0.0000 O   0  0  0  0  0  0  0  0  0  0  0  0
   15.6492  -18.4501    0.0000 O   0  0  0  0  0  0  0  0  0  0  0  0
  1  2  2  0     0  0
  2  3  1  0     0  0
  3  4  2  0     0  0
  4  5  1  0     0  0
  5  6  2  0     0  0
  1  6  1  0     0  0
  2  7  1  0     0  0
  7  8  2  0     0  0
  8  9  1  0     0  0
  9 10  2  0     0  0
  3 10  1  0     0  0
  4 11  1  0     0  0
 11 12  1  0     0  0
 12 13  1  0     0  0
 13 14  1  0     0  0
 14 15  1  0     0  0
 15 16  1  0     0  0
 15 17  1  0     0  0
 12 18  1  1     0  0
 17 19  1  0     0  0
 19 20  1  0     0  0
 20 21  1  0     0  0
 16 22  1  0     0  0
 22 23  1  0     0  0
 23 24  1  0     0  0
 24 25  1  0     0  0
 25 26  2  0     0  0
 26 27  1  0     0  0
 27 28  2  0     0  0
 28 29  1  0     0  0
 29 30  2  0     0  0
 25 30  1  0     0  0
 27 31  1  0     0  0
 31 32  1  0     0  0
 32 33  1  0     0  0
 33 34  1  0     0  0
 28 34  1  0     0  0
 18 35  2  0     0  0
 18 36  1  0     0  0
M  END
