 
 
 
 59 63  0  0  1  0  0  0  0  0999 V2000
   27.6867  -19.4157    0.0000 O   0  0  0  0  0  0  0  0  0  0  0  0
   27.6867  -18.0138    0.0000 C   0  0  0  0  0  0  0  0  0  0  0  0
   26.4952  -17.3129    0.0000 N   0  0  0  0  0  0  0  0  0  0  0  0
   25.2335  -18.0138    0.0000 C   0  0  0  0  0  0  0  0  0  0  0  0
   25.2335  -19.4157    0.0000 C   0  0  0  0  0  0  0  0  0  0  0  0
   26.4952  -20.1166    0.0000 C   0  0  0  0  0  0  0  0  0  0  0  0
   24.0419  -17.3129    0.0000 N   0  0  0  0  0  0  0  0  0  0  0  0
   22.8503  -18.0138    0.0000 C   0  0  0  0  0  0  0  0  0  0  0  0
   22.8503  -19.4157    0.0000 N   0  0  0  0  0  0  0  0  0  0  0  0
   24.0419  -20.1166    0.0000 C   0  0  0  0  0  0  0  0  0  0  0  0
   21.6588  -17.3129    0.0000 N   0  0  0  0  0  0  0  0  0  0  0  0
   20.4672  -18.0138    0.0000 C   0  0  0  0  0  0  0  0  0  0  0  0
   19.2756  -17.3129    0.0000 C   0  0  0  0  0  0  0  0  0  0  0  0
   19.2756  -15.9111    0.0000 C   0  0  0  0  0  0  0  0  0  0  0  0
   18.0139  -15.2101    0.0000 C   0  0  0  0  0  0  0  0  0  0  0  0
   16.8224  -15.9111    0.0000 C   0  0  0  0  0  0  0  0  0  0  0  0
   16.8224  -17.3129    0.0000 C   0  0  0  0  0  0  0  0  0  0  0  0
   18.0139  -18.0138    0.0000 C   0  0  0  0  0  0  0  0  0  0  0  0
   15.5607  -15.2101    0.0000 C   0  0  0  0  0  0  0  0  0  0  0  0
   14.3691  -15.9111    0.0000 N   0  0  0  0  0  0  0  0  0  0  0  0
   13.1775  -15.2101    0.0000 C   0  0  0  0  0  0  0  0  0  0  0  0
   11.9159  -15.9111    0.0000 C   0  0  0  0  0  0  0  0  0  0  0  0
   11.9159  -17.3129    0.0000 N   0  0  0  0  0  0  0  0  0  0  0  0
   13.1074  -18.0138    0.0000 C   0  0  0  0  0  0  0  0  0  0  0  0
   14.3691  -17.3129    0.0000 C   0  0  0  0  0  0  0  0  0  0  0  0
   10.7243  -18.0138    0.0000 C   0  0  0  0  0  0  0  0  0  0  0  0
    9.5327  -17.3129    0.0000 C   0  0  0  0  0  0  0  0  0  0  0  0
   10.7243  -19.4157    0.0000 O   0  0  0  0  0  0  0  0  0  0  0  0
    8.3411  -18.0138    0.0000 C   0  0  0  0  0  0  0  0  0  0  0  0
   15.5607  -13.8083    0.0000 C   0  0  0  0  0  0  0  0  0  0  0  0
   20.4672  -19.4157    0.0000 C   0  0  0  0  0  0  0  0  0  0  0  0
   14.3691  -13.1073    0.0000 C   0  0  0  0  0  0  0  0  0  0  0  0
   12.9673  -13.1073    0.0000 C   0  0  0  0  0  0  0  0  0  0  0  0
   13.6682  -11.9158    0.0000 C   0  0  0  0  0  0  0  0  0  0  0  0
   28.8783  -17.3129    0.0000 O   0  0  0  0  0  0  0  0  0  0  0  0
   26.4952  -15.9111    0.0000 C   0  0  0  0  0  0  0  0  0  0  0  0
   27.7568  -15.2101    0.0000 C   0  0  0  0  0  0  0  0  0  0  0  0
   33.3900  -17.6400    0.0000 C   0  0  0  0  0  0  0  0  0  0  0  0
   33.3900  -19.0400    0.0000 C   0  0  0  0  0  0  0  0  0  0  0  0
   34.6024  -19.7400    0.0000 C   0  0  0  0  0  0  0  0  0  0  0  0
   35.8149  -19.0400    0.0000 C   0  0  0  0  0  0  0  0  0  0  0  0
   35.8149  -17.6400    0.0000 C   0  0  0  0  0  0  0  0  0  0  0  0
   34.6024  -16.9400    0.0000 C   0  0  0  0  0  0  0  0  0  0  0  0
   34.6024  -15.5402    0.0000 C   0  0  0  0  0  0  0  0  0  0  0  0
   33.3732  -14.8303    0.0000 O   0  0  0  0  0  0  0  0  0  0  0  0
   35.7980  -14.8498    0.0000 O   0  0  0  0  0  0  0  0  0  0  0  0
   37.0460  -16.9290    0.0000 O   0  0  0  0  0  0  0  0  0  0  0  0
   32.1776  -19.7400    0.0000 O   0  0  0  0  0  0  0  0  0  0  0  0
   33.3900  -17.6400    0.0000 C   0  0  0  0  0  0  0  0  0  0  0  0
   33.3900  -19.0400    0.0000 C   0  0  0  0  0  0  0  0  0  0  0  0
   34.6024  -19.7400    0.0000 C   0  0  0  0  0  0  0  0  0  0  0  0
   35.8149  -19.0400    0.0000 C   0  0  0  0  0  0  0  0  0  0  0  0
   35.8149  -17.6400    0.0000 C   0  0  0  0  0  0  0  0  0  0  0  0
   34.6024  -16.9400    0.0000 C   0  0  0  0  0  0  0  0  0  0  0  0
   34.6024  -15.5402    0.0000 C   0  0  0  0  0  0  0  0  0  0  0  0
   33.3732  -14.8303    0.0000 O   0  0  0  0  0  0  0  0  0  0  0  0
   35.7980  -14.8498    0.0000 O   0  0  0  0  0  0  0  0  0  0  0  0
   37.0460  -16.9290    0.0000 O   0  0  0  0  0  0  0  0  0  0  0  0
   32.1776  -19.7400    0.0000 O   0  0  0  0  0  0  0  0  0  0  0  0
  1  2  1  0     0  0
  2  3  1  0     0  0
  3  4  1  0     0  0
  4  5  1  0     0  0
  5  6  1  0     0  0
  1  6  1  0     0  0
  4  7  2  0     0  0
  7  8  1  0     0  0
  8  9  2  0     0  0
  9 10  1  0     0  0
  5 10  2  0     0  0
  8 11  1  0     0  0
 11 12  1  0     0  0
 12 13  1  0     0  0
 13 14  2  0     0  0
 14 15  1  0     0  0
 15 16  2  0     0  0
 16 17  1  0     0  0
 17 18  2  0     0  0
 13 18  1  0     0  0
 16 19  1  0     0  0
 19 20  1  0     0  0
 20 21  1  0     0  0
 21 22  1  0     0  0
 22 23  1  0     0  0
 23 24  1  0     0  0
 24 25  1  0     0  0
 20 25  1  0     0  0
 23 26  1  0     0  0
 26 27  1  0     0  0
 26 28  2  0     0  0
 27 29  2  0     0  0
 19 30  1  1     0  0
 12 31  1  1     0  0
 30 32  1  0     0  0
 32 33  1  0     0  0
 33 34  1  0     0  0
 34 32  1  0     0  0
  2 35  2  0     0  0
  3 36  1  0     0  0
 36 37  1  0     0  0
 38 39  2  0     0  0
 39 40  1  0     0  0
 40 41  2  0     0  0
 41 42  1  0     0  0
 42 43  2  0     0  0
 38 43  1  0     0  0
 43 44  1  0     0  0
 44 45  2  0     0  0
 44 46  1  0     0  0
 42 47  1  0     0  0
 39 48  1  0     0  0
 49 50  2  0     0  0
 50 51  1  0     0  0
 51 52  2  0     0  0
 52 53  1  0     0  0
 53 54  2  0     0  0
 49 54  1  0     0  0
 54 55  1  0     0  0
 55 56  2  0     0  0
 55 57  1  0     0  0
 53 58  1  0     0  0
 50 59  1  0     0  0
M  STY  1   1 MUL
M  SLB  1   1   1
M  SCN  1   1 HT 
M  SAL   1 15  38  39  40  41  42  43  44  45  46  47  48  49  50  51  52
M  SAL   1  7  53  54  55  56  57  58  59
M  SPA   1 11  38  39  40  41  42  43  44  45  46  47  48
M  SDI   1  4   30.2400  -20.5100   30.2400  -13.7900
M  SDI   1  4   38.9200  -13.7900   38.9200  -20.5100
M  SMT   1 2
M  END
