 
 
 
 34 39  0  0  1  0  0  0  0  0999 V2000
   18.1354  -15.6243    0.0000 C   0  0  2  0  0  0  0  0  0  0  0  0
   19.3211  -16.3218    0.0000 C   0  0  1  0  0  0  0  0  0  0  0  0
   16.9496  -16.3218    0.0000 C   0  0  2  0  0  0  0  0  0  0  0  0
   18.1354  -14.2991    0.0000 C   0  0  0  0  0  0  0  0  0  0  0  0
   19.3211  -14.9268    0.0000 C   0  0  0  0  0  0  0  0  0  0  0  0
   20.5069  -15.6941    0.0000 C   0  0  2  0  0  0  0  0  0  0  0  0
   19.3211  -17.7169    0.0000 C   0  0  0  0  0  0  0  0  0  0  0  0
   18.7631  -17.3681    0.0000 C   0  0  0  0  0  0  0  0  0  0  0  0
   16.9496  -17.6471    0.0000 C   0  0  2  0  0  0  0  0  0  0  0  0
   16.2521  -14.7873    0.0000 O   0  0  0  0  0  0  0  0  0  0  0  0
   16.9496  -13.6016    0.0000 C   0  0  0  0  0  0  0  0  0  0  0  0
   19.3211  -13.6016    0.0000 C   0  0  0  0  0  0  0  0  0  0  0  0
   21.6926  -14.9268    0.0000 C   0  0  0  0  0  0  0  0  0  0  0  0
   21.6926  -16.3218    0.0000 N   0  0  2  0  0  0  0  0  0  0  0  0
   20.5069  -14.2991    0.0000 C   0  0  0  0  0  0  0  0  0  0  0  0
   18.1354  -18.3446    0.0000 C   0  0  1  0  0  0  0  0  0  0  0  0
   17.5773  -16.6706    0.0000 C   0  0  0  0  0  0  0  0  0  0  0  0
   15.5546  -17.6471    0.0000 O   0  0  0  0  0  0  0  0  0  0  0  0
   16.9496  -12.2066    0.0000 C   0  0  0  0  0  0  0  0  0  0  0  0
   19.3211  -12.2066    0.0000 C   0  0  0  0  0  0  0  0  0  0  0  0
   22.8086  -15.6941    0.0000 C   0  0  0  0  0  0  0  0  0  0  0  0
   18.1354  -19.7396    0.0000 C   0  0  1  0  0  0  0  0  0  0  0  0
   14.4386  -18.6236    0.0000 C   0  0  0  0  0  0  0  0  0  0  0  0
   18.2051  -11.5091    0.0000 C   0  0  0  0  0  0  0  0  0  0  0  0
   15.7638  -11.5091    0.0000 O   0  0  0  0  0  0  0  0  0  0  0  0
   19.2514  -20.4371    0.0000 C   0  0  0  0  0  0  0  0  0  0  0  0
   16.8798  -20.3674    0.0000 O   0  0  0  0  0  0  0  0  0  0  0  0
   16.8798  -19.0421    0.0000 C   0  0  0  0  0  0  0  0  0  0  0  0
   20.4371  -19.7396    0.0000 C   0  0  0  0  0  0  0  0  0  0  0  0
   21.6229  -20.4371    0.0000 C   0  0  0  0  0  0  0  0  0  0  0  0
   19.3211  -19.0421    0.0000 H   0  0  0  0  0  0  0  0  0  0  0  0
   14.5514  -12.2091    0.0000 C   0  0  0  0  0  0  0  0  0  0  0  0
   13.3390  -11.5091    0.0000 C   0  0  0  0  0  0  0  0  0  0  0  0
   14.5514  -13.6091    0.0000 O   0  0  0  0  0  0  0  0  0  0  0  0
  1  3  1  0     0  0
  1  4  1  0     0  0
  1  5  1  1     0  0
  2  6  1  0     0  0
  2  7  1  0     0  0
  2  8  1  6     0  0
  3  9  1  0     0  0
  3 10  1  6     0  0
  4 11  1  0     0  0
  4 12  2  0     0  0
  5 13  1  0     0  0
  6 14  1  1     0  0
  6 15  1  0     0  0
  7 16  1  0     0  0
  8 17  2  0     0  0
  9 18  1  0     0  0
 11 19  2  0     0  0
 12 20  1  0     0  0
 14 21  1  0     0  0
 16 22  1  0     0  0
 18 23  1  0     0  0
 19 24  1  0     0  0
 19 25  1  0     0  0
 22 26  1  0     0  0
 22 27  1  1     0  0
 22 28  1  6     0  0
 26 29  1  0     0  0
  9 16  1  0     0  0
  9 17  1  6     0  0
 10 11  1  0     0  0
 12 15  1  0     0  0
 14 13  1  1     0  0
 20 24  2  0     0  0
 29 30  1  0     0  0
  1  2  1  0     0  0
 16 31  1  1     0  0
 25 32  1  0     0  0
 32 33  1  0     0  0
 32 34  2  0     0  0
M  END
