 
 
 
 17 19  0  0  0  0  0  0  0  0999 V2000
   15.1200  -18.0600    0.0000 C   0  0  0  0  0  0  0  0  0  0  0  0
   15.1200  -16.6600    0.0000 C   0  0  0  0  0  0  0  0  0  0  0  0
   16.3100  -15.9600    0.0000 C   0  0  0  0  0  0  0  0  0  0  0  0
   17.5000  -16.6600    0.0000 C   0  0  0  0  0  0  0  0  0  0  0  0
   17.5000  -18.0600    0.0000 C   0  0  0  0  0  0  0  0  0  0  0  0
   16.3100  -18.7600    0.0000 C   0  0  0  0  0  0  0  0  0  0  0  0
   18.7600  -15.9600    0.0000 C   0  0  0  0  0  0  0  0  0  0  0  0
   17.5000  -15.2600    0.0000 C   0  0  0  0  0  0  0  0  0  0  0  0
   17.5000  -13.8600    0.0000 C   0  0  0  0  0  0  0  0  0  0  0  0
   19.9500  -15.2600    0.0000 C   0  0  0  0  0  0  0  0  0  0  0  0
   19.9500  -13.8600    0.0000 C   0  0  0  0  0  0  0  0  0  0  0  0
   18.7600  -13.1600    0.0000 C   0  0  0  0  0  0  0  0  0  0  0  0
   19.9500  -16.6600    0.0000 N   0  0  0  0  0  0  0  0  0  0  0  0
   21.2100  -16.1000    0.0000 C   0  0  0  0  0  0  0  0  0  0  0  0
   22.1200  -17.1500    0.0000 C   0  0  0  0  0  0  0  0  0  0  0  0
   21.4200  -18.3400    0.0000 C   0  0  0  0  0  0  0  0  0  0  0  0
   20.0900  -18.0600    0.0000 C   0  0  0  0  0  0  0  0  0  0  0  0
  1  2  2  0     0  0
  2  3  1  0     0  0
  3  4  2  0     0  0
  4  5  1  0     0  0
  5  6  2  0     0  0
  1  6  1  0     0  0
  4  7  1  0     0  0
  7  8  1  0     0  0
  8  9  1  0     0  0
  7 10  1  0     0  0
 10 11  1  0     0  0
  9 12  1  0     0  0
 11 12  1  0     0  0
  7 13  1  0     0  0
 13 14  1  0     0  0
 14 15  1  0     0  0
 15 16  1  0     0  0
 16 17  1  0     0  0
 13 17  1  0     0  0
M  END
