 
 
 
 32 35  0  0  1  0  0  0  0  0999 V2000
   26.8800  -24.2900    0.0000 N   0  0  0  0  0  0  0  0  0  0  0  0
   26.8800  -25.6900    0.0000 N   0  0  0  0  0  0  0  0  0  0  0  0
   28.0700  -26.3900    0.0000 C   0  0  0  0  0  0  0  0  0  0  0  0
   29.3300  -25.6900    0.0000 C   0  0  0  0  0  0  0  0  0  0  0  0
   29.3300  -24.2900    0.0000 C   0  0  0  0  0  0  0  0  0  0  0  0
   28.0700  -23.5900    0.0000 C   0  0  0  0  0  0  0  0  0  0  0  0
   28.0700  -22.1900    0.0000 C   0  0  0  0  0  0  0  0  0  0  0  0
   26.8800  -21.4900    0.0000 N   0  0  0  0  0  0  0  0  0  0  0  0
   29.2600  -21.4900    0.0000 O   0  0  0  0  0  0  0  0  0  0  0  0
   25.6900  -22.1900    0.0000 C   0  0  0  0  0  0  0  0  0  0  0  0
   24.4300  -22.8900    0.0000 H   1  0  0  0  0  0  0  0  0  0  0  0
   24.9900  -20.9300    0.0000 H   1  0  0  0  0  0  0  0  0  0  0  0
   26.3900  -23.3800    0.0000 H   1  0  0  0  0  0  0  0  0  0  0  0
   28.0700  -27.7900    0.0000 N   0  0  0  0  0  0  0  0  0  0  0  0
   26.8800  -28.4900    0.0000 C   0  0  0  0  0  0  0  0  0  0  0  0
   25.6900  -27.7900    0.0000 C   0  0  0  0  0  0  0  0  0  0  0  0
   26.8800  -29.8900    0.0000 O   0  0  0  0  0  0  0  0  0  0  0  0
   24.9900  -26.5300    0.0000 C   0  0  0  0  0  0  0  0  0  0  0  0
   24.2200  -27.7900    0.0000 C   0  0  0  0  0  0  0  0  0  0  0  0
   23.5200  -28.9800    0.0000 C   0  0  0  0  0  0  0  0  0  0  0  0
   22.8900  -27.7900    0.0000 C   0  0  0  0  0  0  0  0  0  0  0  0
   30.5366  -23.5800    0.0000 N   0  0  0  0  0  0  0  0  0  0  0  0
   31.7463  -24.2653    0.0000 C   0  0  0  0  0  0  0  0  0  0  0  0
   31.7574  -25.6898    0.0000 N   0  0  0  0  0  0  0  0  0  0  0  0
   32.9752  -26.3804    0.0000 C   0  0  0  0  0  0  0  0  0  0  0  0
   34.1822  -25.6710    0.0000 C   0  0  0  0  0  0  0  0  0  0  0  0
   34.1711  -24.2466    0.0000 C   0  0  0  0  0  0  0  0  0  0  0  0
   32.9533  -23.5560    0.0000 C   0  0  0  0  0  0  0  0  0  0  0  0
   32.9431  -22.1903    0.0000 S   0  0  0  0  0  0  0  0  0  0  0  0
   32.9431  -20.7903    0.0000 C   0  0  0  0  0  0  0  0  0  0  0  0
   34.3431  -22.1903    0.0000 O   0  0  0  0  0  0  0  0  0  0  0  0
   31.5431  -22.1903    0.0000 O   0  0  0  0  0  0  0  0  0  0  0  0
  1  2  2  0     0  0
  2  3  1  0     0  0
  3  4  2  0     0  0
  4  5  1  0     0  0
  5  6  2  0     0  0
  1  6  1  0     0  0
  6  7  1  0     0  0
  7  8  1  0     0  0
  7  9  2  0     0  0
  8 10  1  0     0  0
 10 11  1  0     0  0
 10 12  1  0     0  0
 10 13  1  0     0  0
  3 14  1  0     0  0
 14 15  1  0     0  0
 16 15  1  1     0  0
 15 17  2  0     0  0
 19 18  1  0     0  0
 18 16  1  0     0  0
 16 19  1  0     0  0
 20 19  1  0     0  0
 19 21  1  0     0  0
 21 20  1  0     0  0
  5 22  1  0     0  0
 22 23  1  0     0  0
 23 24  2  0     0  0
 24 25  1  0     0  0
 25 26  2  0     0  0
 26 27  1  0     0  0
 27 28  2  0     0  0
 23 28  1  0     0  0
 28 29  1  0     0  0
 29 30  1  0     0  0
 29 31  2  0     0  0
 29 32  2  0     0  0
M  ISO  3  11   2  12   2  13   2
M  END
