 
 
 
 34 35  0  0  1  0  0  0  0  0999 V2000
   16.9289  -15.8096    0.0000 N   0  0  0  0  0  0  0  0  0  0  0  0
   15.8096  -14.9702    0.0000 C   0  0  0  0  0  0  0  0  0  0  0  0
   16.2293  -13.6410    0.0000 C   0  0  0  0  0  0  0  0  0  0  0  0
   17.6284  -13.6410    0.0000 C   0  0  0  0  0  0  0  0  0  0  0  0
   18.0481  -14.9702    0.0000 C   0  0  0  0  0  0  0  0  0  0  0  0
   19.2373  -15.6697    0.0000 C   0  0  0  0  0  0  0  0  0  0  0  0
   20.4266  -14.9702    0.0000 N   0  0  0  0  0  0  0  0  0  0  0  0
   19.2373  -17.0688    0.0000 O   0  0  0  0  0  0  0  0  0  0  0  0
   21.6158  -15.6697    0.0000 C   0  0  0  0  0  0  0  0  0  0  0  0
   22.8750  -14.9702    0.0000 C   0  0  0  0  0  0  0  0  0  0  0  0
   21.6158  -17.0688    0.0000 C   0  0  0  0  0  0  0  0  0  0  0  0
   21.6158  -18.4679    0.0000 N   0  0  0  0  0  0  0  0  0  0  0  0
   24.0642  -15.6697    0.0000 C   0  0  0  0  0  0  0  0  0  0  0  0
   24.2740  -17.0688    0.0000 C   0  0  0  0  0  0  0  0  0  0  0  0
   25.6731  -17.3486    0.0000 N   0  0  0  0  0  0  0  0  0  0  0  0
   26.3727  -16.0894    0.0000 C   0  0  0  0  0  0  0  0  0  0  0  0
   25.3933  -15.0401    0.0000 C   0  0  0  0  0  0  0  0  0  0  0  0
   23.2247  -17.9782    0.0000 O   0  0  0  0  0  0  0  0  0  0  0  0
   16.9289  -17.2087    0.0000 C   0  0  0  0  0  0  0  0  0  0  0  0
   15.7396  -17.9082    0.0000 C   0  0  0  0  0  0  0  0  0  0  0  0
   18.1880  -17.9082    0.0000 O   0  0  0  0  0  0  0  0  0  0  0  0
   14.5504  -17.2087    0.0000 N   0  0  0  0  0  0  0  0  0  0  0  0
   15.7396  -19.3073    0.0000 C   0  0  0  0  0  0  0  0  0  0  0  0
   14.5504  -20.0068    0.0000 C   0  0  0  0  0  0  0  0  0  0  0  0
   16.9988  -20.0068    0.0000 C   0  0  0  0  0  0  0  0  0  0  0  0
   15.7396  -20.7064    0.0000 C   0  0  0  0  0  0  0  0  0  0  0  0
   13.3612  -17.9082    0.0000 C   0  0  0  0  0  0  0  0  0  0  0  0
   12.1720  -17.2087    0.0000 O   0  0  0  0  0  0  0  0  0  0  0  0
   13.3612  -19.3073    0.0000 O   0  0  0  0  0  0  0  0  0  0  0  0
   10.9828  -17.9082    0.0000 C   0  0  0  0  0  0  0  0  0  0  0  0
   15.4098  -12.5227    0.0000 C   0  0  0  0  0  0  0  0  0  0  0  0
   14.4198  -11.5328    0.0000 F   0  0  0  0  0  0  0  0  0  0  0  0
   14.4198  -13.5127    0.0000 F   0  0  0  0  0  0  0  0  0  0  0  0
   16.3997  -11.5328    0.0000 F   0  0  0  0  0  0  0  0  0  0  0  0
  1  2  1  0     0  0
  2  3  1  0     0  0
  3  4  1  0     0  0
  4  5  1  0     0  0
  1  5  1  0     0  0
  5  6  1  1     0  0
  6  7  1  0     0  0
  6  8  2  0     0  0
  9  7  1  1     0  0
  9 10  1  0     0  0
  9 11  1  0     0  0
 11 12  3  0     0  0
 13 10  1  6     0  0
 13 14  1  0     0  0
 14 15  1  0     0  0
 15 16  1  0     0  0
 16 17  1  0     0  0
 13 17  1  0     0  0
 14 18  2  0     0  0
  1 19  1  0     0  0
 19 20  1  0     0  0
 19 21  2  0     0  0
 20 22  1  0     0  0
 20 23  1  6     0  0
 23 24  1  0     0  0
 23 25  1  0     0  0
 23 26  1  0     0  0
 22 27  1  0     0  0
 27 28  1  0     0  0
 27 29  2  0     0  0
 28 30  1  0     0  0
  3 31  1  6     0  0
 31 32  1  0     0  0
 31 33  1  0     0  0
 31 34  1  0     0  0
M  END
