 
 
 
 14 14  0  0  0  0  0  0  0  0999 V2000
   13.3000  -13.5100    0.0000 N   0  0  0  0  0  0  0  0  0  0  0  0
   13.3000  -14.9100    0.0000 C   0  0  0  0  0  0  0  0  0  0  0  0
   14.7000  -14.9100    0.0000 C   0  0  0  0  0  0  0  0  0  0  0  0
   14.7000  -13.5100    0.0000 C   0  0  0  0  0  0  0  0  0  0  0  0
   12.1100  -12.8100    0.0000 C   0  0  0  0  0  0  0  0  0  0  0  0
   10.9200  -13.5100    0.0000 C   0  0  0  0  0  0  0  0  0  0  0  0
   12.1100  -11.4100    0.0000 O   0  0  0  0  0  0  0  0  0  0  0  0
    9.7019  -12.8199    0.0000 Br  0  0  0  0  0  0  0  0  0  0  0  0
   14.7000  -16.3100    0.0000 N   0  3  0  0  0  0  0  0  0  0  0  0
   16.1000  -14.9100    0.0000 N   0  3  0  0  0  0  0  0  0  0  0  0
   16.8000  -16.1224    0.0000 O   0  5  0  0  0  0  0  0  0  0  0  0
   16.8000  -13.6976    0.0000 O   0  0  0  0  0  0  0  0  0  0  0  0
   13.4876  -17.0100    0.0000 O   0  0  0  0  0  0  0  0  0  0  0  0
   15.9124  -17.0100    0.0000 O   0  5  0  0  0  0  0  0  0  0  0  0
  1  2  1  0     0  0
  2  3  1  0     0  0
  3  4  1  0     0  0
  1  4  1  0     0  0
  5  1  1  0     0  0
  5  6  1  0     0  0
  5  7  2  0     0  0
  6  8  1  0     0  0
  3  9  1  0     0  0
  3 10  1  0     0  0
 10 11  1  0     0  0
 10 12  2  0     0  0
  9 13  2  0     0  0
  9 14  1  0     0  0
M  CHG  4   9   1  10   1  11  -1  14  -1
M  END
