 
 
 
 39 43  0  0  1  0  0  0  0  0999 V2000
   21.2100  -16.5900    0.0000 C   0  0  0  0  0  0  0  0  0  0  0  0
   21.2100  -17.9900    0.0000 C   0  0  0  0  0  0  0  0  0  0  0  0
   22.4700  -18.6900    0.0000 C   0  0  0  0  0  0  0  0  0  0  0  0
   23.6600  -17.9900    0.0000 N   0  0  0  0  0  0  0  0  0  0  0  0
   23.6600  -16.5900    0.0000 C   0  0  0  0  0  0  0  0  0  0  0  0
   22.4700  -15.8900    0.0000 N   0  0  0  0  0  0  0  0  0  0  0  0
   24.8500  -15.8900    0.0000 N   0  0  0  0  0  0  0  0  0  0  0  0
   26.0400  -16.5900    0.0000 C   0  0  0  0  0  0  0  0  0  0  0  0
   27.3000  -15.8900    0.0000 C   0  0  0  0  0  0  0  0  0  0  0  0
   27.3000  -14.4900    0.0000 C   0  0  0  0  0  0  0  0  0  0  0  0
   26.1100  -13.7900    0.0000 C   0  0  0  0  0  0  0  0  0  0  0  0
   24.8500  -14.4900    0.0000 C   0  0  0  0  0  0  0  0  0  0  0  0
   28.4900  -13.7900    0.0000 O   0  0  0  0  0  0  0  0  0  0  0  0
   29.6800  -14.4900    0.0000 C   0  0  0  0  0  0  0  0  0  0  0  0
   28.4900  -16.5900    0.0000 F   0  0  0  0  0  0  0  0  0  0  0  0
   22.4700  -20.0900    0.0000 N   0  0  0  0  0  0  0  0  0  0  0  0
   27.2300  -22.8200    0.0000 C   0  0  0  0  0  0  0  0  0  0  0  0
   27.2300  -24.2200    0.0000 C   0  0  0  0  0  0  0  0  0  0  0  0
   26.0400  -24.9200    0.0000 C   0  0  0  0  0  0  0  0  0  0  0  0
   24.7800  -24.2200    0.0000 C   0  0  0  0  0  0  0  0  0  0  0  0
   24.7800  -22.8200    0.0000 C   0  0  0  0  0  0  0  0  0  0  0  0
   26.0400  -22.1200    0.0000 C   0  0  0  0  0  0  0  0  0  0  0  0
   23.6600  -22.1200    0.0000 C   0  0  0  0  0  0  0  0  0  0  0  0
   23.6600  -20.7900    0.0000 C   0  0  0  0  0  0  0  0  0  0  0  0
   24.7800  -20.0900    0.0000 N   0  0  0  0  0  0  0  0  0  0  0  0
   26.0400  -20.7900    0.0000 C   0  0  0  0  0  0  0  0  0  0  0  0
   23.6600  -24.9200    0.0000 C   0  0  0  0  0  0  0  0  0  0  0  0
   22.4700  -24.2200    0.0000 C   0  0  0  0  0  0  0  0  0  0  0  0
   23.6600  -26.3200    0.0000 C   0  0  0  0  0  0  0  0  0  0  0  0
   28.4200  -22.1200    0.0000 N   0  0  0  0  0  0  0  0  0  0  0  0
   28.7700  -20.8600    0.0000 C   0  0  0  0  0  0  0  0  0  0  0  0
   30.1700  -21.2100    0.0000 C   0  0  0  0  0  0  0  0  0  0  0  0
   29.8200  -22.4700    0.0000 C   0  0  0  0  0  0  0  0  0  0  0  0
   30.5200  -23.7300    0.0000 C   0  0  0  0  0  0  0  0  0  0  0  0
   31.3600  -20.5100    0.0000 C   0  0  0  0  0  0  0  0  0  0  0  0
   32.5500  -21.2100    0.0000 S   0  0  0  0  0  0  0  0  0  0  0  0
   33.8100  -21.9100    0.0000 C   0  0  0  0  0  0  0  0  0  0  0  0
   33.2500  -19.9500    0.0000 O   0  0  0  0  0  0  0  0  0  0  0  0
   31.8500  -22.3300    0.0000 O   0  0  0  0  0  0  0  0  0  0  0  0
  1  2  2  0     0  0
  2  3  1  0     0  0
  3  4  2  0     0  0
  4  5  1  0     0  0
  5  6  2  0     0  0
  1  6  1  0     0  0
  5  7  1  0     0  0
  7  8  1  0     0  0
  8  9  1  0     0  0
  9 10  1  0     0  0
 10 11  1  0     0  0
 11 12  1  0     0  0
  7 12  1  0     0  0
 10 13  1  1     0  0
 13 14  1  0     0  0
  9 15  1  1     0  0
  3 16  1  0     0  0
 17 18  2  0     0  0
 18 19  1  0     0  0
 19 20  2  0     0  0
 20 21  1  0     0  0
 21 22  2  0     0  0
 17 22  1  0     0  0
 21 23  1  0     0  0
 23 24  2  0     0  0
 24 25  1  0     0  0
 25 26  2  0     0  0
 22 26  1  0     0  0
 24 16  1  0     0  0
 20 27  1  0     0  0
 27 28  1  0     0  0
 27 29  1  0     0  0
 17 30  1  0     0  0
 30 31  1  0     0  0
 31 32  1  0     0  0
 32 33  1  0     0  0
 30 33  1  0     0  0
 33 34  1  1     0  0
 32 35  1  6     0  0
 35 36  1  0     0  0
 36 37  1  0     0  0
 36 38  2  0     0  0
 36 39  2  0     0  0
M  END
