 
 
 
 17 19  0  0  0  0  0  0  0  0999 V2000
   18.5549  -15.9984    0.0000 C   0  0  3  0  0  0  0  0  0  0  0  0
   17.3584  -16.7023    0.0000 C   0  0  0  0  0  0  0  0  0  0  0  0
   19.6811  -16.7023    0.0000 N   0  0  3  0  0  0  0  0  0  0  0  0
   19.6811  -15.2946    0.0000 C   0  0  0  0  0  0  0  0  0  0  0  0
   17.3584  -15.2946    0.0000 C   0  0  0  0  0  0  0  0  0  0  0  0
   19.6811  -18.1099    0.0000 C   0  0  0  0  0  0  0  0  0  0  0  0
   20.9480  -15.9984    0.0000 C   0  0  0  0  0  0  0  0  0  0  0  0
   19.6811  -13.8869    0.0000 C   0  0  0  0  0  0  0  0  0  0  0  0
   17.3584  -13.8869    0.0000 C   0  0  0  0  0  0  0  0  0  0  0  0
   20.9480  -18.8138    0.0000 C   0  0  0  0  0  0  0  0  0  0  0  0
   22.1445  -16.7023    0.0000 C   0  0  0  0  0  0  0  0  0  0  0  0
   18.5549  -13.1830    0.0000 C   0  0  0  0  0  0  0  0  0  0  0  0
   22.1445  -18.1099    0.0000 C   0  0  0  0  0  0  0  0  0  0  0  0
   16.0915  -16.1392    0.0000 S   0  0  0  0  0  0  0  0  0  0  0  0
   15.1061  -17.1950    0.0000 C   0  0  0  0  0  0  0  0  0  0  0  0
   15.8099  -18.4619    0.0000 C   0  0  0  0  0  0  0  0  0  0  0  0
   17.2176  -18.1099    0.0000 C   0  0  0  0  0  0  0  0  0  0  0  0
  1  2  1  0     0  0
  1  3  1  0     0  0
  1  4  1  0     0  0
  1  5  1  0     0  0
  3  6  1  0     0  0
  3  7  1  0     0  0
  4  8  1  0     0  0
  5  9  1  0     0  0
  6 10  1  0     0  0
  7 11  1  0     0  0
  8 12  1  0     0  0
 10 13  1  0     0  0
  9 12  1  0     0  0
 11 13  1  0     0  0
  2 14  1  0     0  0
 14 15  1  0     0  0
 15 16  2  0     0  0
 16 17  1  0     0  0
  2 17  2  0     0  0
M  END
