 
 
 
 31 33  0  0  0  0  0  0  0  0999 V2000
   11.2000  -17.2200    0.0000 C   0  0  0  0  0  0  0  0  0  0  0  0
   11.2000  -18.6200    0.0000 C   0  0  0  0  0  0  0  0  0  0  0  0
   12.3900  -19.3200    0.0000 C   0  0  0  0  0  0  0  0  0  0  0  0
   13.6500  -18.6200    0.0000 C   0  0  0  0  0  0  0  0  0  0  0  0
   13.6500  -17.2200    0.0000 C   0  0  0  0  0  0  0  0  0  0  0  0
   12.3900  -16.5200    0.0000 C   0  0  0  0  0  0  0  0  0  0  0  0
   10.0100  -16.5200    0.0000 C   0  0  0  0  0  0  0  0  0  0  0  0
    8.7500  -17.2200    0.0000 C   0  0  0  0  0  0  0  0  0  0  0  0
    8.7500  -18.6200    0.0000 C   0  0  0  0  0  0  0  0  0  0  0  0
   10.0100  -19.3200    0.0000 C   0  0  0  0  0  0  0  0  0  0  0  0
    7.5600  -16.5200    0.0000 C   0  0  0  0  0  0  0  0  0  0  0  0
    6.3700  -17.2200    0.0000 N   0  0  0  0  0  0  0  0  0  0  0  0
    5.1800  -16.5200    0.0000 C   0  0  0  0  0  0  0  0  0  0  0  0
    6.3700  -18.6200    0.0000 C   0  0  0  0  0  0  0  0  0  0  0  0
    5.1800  -19.3200    0.0000 C   0  0  0  0  0  0  0  0  0  0  0  0
    3.9900  -17.2200    0.0000 C   0  0  0  0  0  0  0  0  0  0  0  0
   14.8400  -19.3200    0.0000 C   0  0  0  0  0  0  0  0  0  0  0  0
   16.0300  -18.6200    0.0000 O   0  0  0  0  0  0  0  0  0  0  0  0
   17.2200  -19.3200    0.0000 C   0  0  0  0  0  0  0  0  0  0  0  0
   18.4100  -18.6200    0.0000 N   0  0  0  0  0  0  0  0  0  0  0  0
   17.2200  -20.7200    0.0000 O   0  0  0  0  0  0  0  0  0  0  0  0
   19.6000  -19.3200    0.0000 C   0  0  0  0  0  0  0  0  0  0  0  0
   19.6000  -20.7200    0.0000 C   0  0  0  0  0  0  0  0  0  0  0  0
   20.8600  -21.4200    0.0000 C   0  0  0  0  0  0  0  0  0  0  0  0
   22.0500  -20.7200    0.0000 C   0  0  0  0  0  0  0  0  0  0  0  0
   22.0500  -19.3200    0.0000 C   0  0  0  0  0  0  0  0  0  0  0  0
   20.8600  -18.6200    0.0000 C   0  0  0  0  0  0  0  0  0  0  0  0
   23.2400  -21.4200    0.0000 C   0  0  0  0  0  0  0  0  0  0  0  0
   24.4300  -20.7200    0.0000 N   0  0  0  0  0  0  0  0  0  0  0  0
   23.2400  -22.8200    0.0000 O   0  0  0  0  0  0  0  0  0  0  0  0
   25.6200  -21.4200    0.0000 O   0  0  0  0  0  0  0  0  0  0  0  0
  1  2  2  0     0  0
  2  3  1  0     0  0
  3  4  2  0     0  0
  4  5  1  0     0  0
  5  6  2  0     0  0
  1  6  1  0     0  0
  1  7  1  0     0  0
  7  8  2  0     0  0
  8  9  1  0     0  0
  9 10  2  0     0  0
  2 10  1  0     0  0
  8 11  1  0     0  0
 11 12  1  0     0  0
 12 13  1  0     0  0
 12 14  1  0     0  0
 14 15  1  0     0  0
 13 16  1  0     0  0
  4 17  1  0     0  0
 17 18  1  0     0  0
 18 19  1  0     0  0
 19 20  1  0     0  0
 19 21  2  0     0  0
 20 22  1  0     0  0
 22 23  2  0     0  0
 23 24  1  0     0  0
 24 25  2  0     0  0
 25 26  1  0     0  0
 26 27  2  0     0  0
 22 27  1  0     0  0
 25 28  1  0     0  0
 28 29  1  0     0  0
 28 30  2  0     0  0
 29 31  1  0     0  0
M  END
