 
 
 
 15 15  0  0  0  0  0  0  0  0999 V2000
   18.5723  -15.4649    0.0000 C   0  0  0  0  0  0  0  0  0  0  0  0
   17.3720  -14.7588    0.0000 C   0  0  0  0  0  0  0  0  0  0  0  0
   18.5723  -16.8771    0.0000 C   0  0  0  0  0  0  0  0  0  0  0  0
   19.7727  -14.7588    0.0000 C   0  0  0  0  0  0  0  0  0  0  0  0
   16.1716  -15.4649    0.0000 C   0  0  0  0  0  0  0  0  0  0  0  0
   17.3720  -17.5126    0.0000 C   0  0  0  0  0  0  0  0  0  0  0  0
   21.0437  -15.4649    0.0000 C   0  0  3  0  0  0  0  0  0  0  0  0
   16.1716  -16.8771    0.0000 C   0  0  0  0  0  0  0  0  0  0  0  0
   17.3720  -13.3466    0.0000 O   0  0  0  0  0  0  0  0  0  0  0  0
   16.3834  -12.3580    0.0000 C   0  0  0  0  0  0  0  0  0  0  0  0
   14.9712  -17.5126    0.0000 Br  0  0  0  0  0  0  0  0  0  0  0  0
   17.3720  -18.9248    0.0000 O   0  0  0  0  0  0  0  0  0  0  0  0
   18.6429  -19.6309    0.0000 C   0  0  0  0  0  0  0  0  0  0  0  0
   22.2441  -14.7588    0.0000 N   0  0  0  0  0  0  0  0  0  0  0  0
   21.0437  -16.8649    0.0000 C   0  0  0  0  0  0  0  0  0  0  0  0
  1  2  2  0     0  0
  1  3  1  0     0  0
  1  4  1  0     0  0
  2  5  1  0     0  0
  3  6  2  0     0  0
  4  7  1  0     0  0
  5  8  2  0     0  0
  6  8  1  0     0  0
  2  9  1  0     0  0
  9 10  1  0     0  0
  8 11  1  0     0  0
  6 12  1  0     0  0
 12 13  1  0     0  0
  7 14  1  0     0  0
  7 15  1  0     0  0
M  END
