 
 
 
 45 52  0  0  1  0  0  0  0  0999 V2000
   28.4200  -11.3400    0.0000 C   0  0  0  0  0  0  0  0  0  0  0  0
   27.6500  -10.2900    0.0000 C   0  0  0  0  0  0  0  0  0  0  0  0
   26.3200  -10.2900    0.0000 C   0  0  0  0  0  0  0  0  0  0  0  0
   25.6900  -11.6200    0.0000 N   0  0  0  0  0  0  0  0  0  0  0  0
   26.4600  -12.6700    0.0000 C   0  0  0  0  0  0  0  0  0  0  0  0
   27.8600  -12.6700    0.0000 C   0  0  0  0  0  0  0  0  0  0  0  0
   25.5500   -9.1700    0.0000 N   0  0  0  0  0  0  0  0  0  0  0  0
   24.1500   -9.1700    0.0000 C   0  0  0  0  0  0  0  0  0  0  0  0
   23.3800   -8.1200    0.0000 C   0  0  0  0  0  0  0  0  0  0  0  0
   22.0500   -8.1200    0.0000 C   0  0  0  0  0  0  0  0  0  0  0  0
   21.4200   -9.4500    0.0000 C   0  0  0  0  0  0  0  0  0  0  0  0
   25.9000  -14.0000    0.0000 S   0  0  0  0  0  0  0  0  0  0  0  0
   20.0200   -9.4500    0.0000 C   0  0  0  0  0  0  0  0  0  0  0  0
   19.5300  -10.7100    0.0000 C   0  0  0  0  0  0  0  0  0  0  0  0
   20.6500  -11.5500    0.0000 N   0  0  0  0  0  0  0  0  0  0  0  0
   21.7700  -10.7800    0.0000 C   0  0  0  0  0  0  0  0  0  0  0  0
   20.6500  -13.0200    0.0000 C   0  0  0  0  0  0  0  0  0  0  0  0
   19.4600  -13.6500    0.0000 N   0  0  0  0  0  0  0  0  0  0  0  0
   19.4600  -15.0500    0.0000 C   0  0  0  0  0  0  0  0  0  0  0  0
   20.6500  -15.7500    0.0000 C   0  0  0  0  0  0  0  0  0  0  0  0
   21.8400  -15.0500    0.0000 C   0  0  0  0  0  0  0  0  0  0  0  0
   21.8400  -13.7200    0.0000 C   0  0  0  0  0  0  0  0  0  0  0  0
   27.1600  -14.6300    0.0000 O   0  0  0  0  0  0  0  0  0  0  0  0
   25.9000  -15.4000    0.0000 O   0  0  0  0  0  0  0  0  0  0  0  0
   20.9300   -8.1900    0.0000 H   0  0  0  0  0  0  0  0  0  0  0  0
   18.4800   -9.8000    0.0000 C   0  0  0  0  0  0  0  0  0  0  0  0
   18.9700  -11.9700    0.0000 C   0  0  0  0  0  0  0  0  0  0  0  0
   18.2000  -15.6800    0.0000 N   0  0  0  0  0  0  0  0  0  0  0  0
   23.0300  -13.0200    0.0000 C   0  0  0  0  0  0  0  0  0  0  0  0
   24.2200  -14.0000    0.0000 N   0  0  0  0  0  0  0  0  0  0  0  0
   23.0300  -11.6200    0.0000 O   0  0  0  0  0  0  0  0  0  0  0  0
   18.2000  -17.0800    0.0000 N   0  0  0  0  0  0  0  0  0  0  0  0
   16.8700  -15.2600    0.0000 C   0  0  0  0  0  0  0  0  0  0  0  0
   16.0300  -16.3800    0.0000 C   0  0  0  0  0  0  0  0  0  0  0  0
   16.8700  -17.5000    0.0000 C   0  0  0  0  0  0  0  0  0  0  0  0
   16.4500  -18.8300    0.0000 O   0  0  0  0  0  0  0  0  0  0  0  0
   15.0500  -18.8300    0.0000 C   0  0  0  0  0  0  0  0  0  0  0  0
   14.3500  -20.0200    0.0000 C   0  0  0  0  0  0  0  0  0  0  0  0
   12.9500  -20.0200    0.0000 C   0  0  0  0  0  0  0  0  0  0  0  0
   11.7600  -19.3900    0.0000 C   0  0  0  0  0  0  0  0  0  0  0  0
   11.7600  -20.7900    0.0000 C   0  0  0  0  0  0  0  0  0  0  0  0
   10.5700  -21.6300    0.0000 C   0  0  0  0  0  0  0  0  0  0  0  0
   11.7600  -22.1200    0.0000 C   0  0  0  0  0  0  0  0  0  0  0  0
   10.5000  -18.5500    0.0000 C   0  0  0  0  0  0  0  0  0  0  0  0
   11.7600  -17.9900    0.0000 C   0  0  0  0  0  0  0  0  0  0  0  0
  1  2  2  0     0  0
  2  3  1  0     0  0
  3  4  2  0     0  0
  4  5  1  0     0  0
  5  6  2  0     0  0
  1  6  1  0     0  0
  7  8  1  0     0  0
  8  9  1  0     0  0
  9 10  1  0     0  0
 10 11  1  0     0  0
  5 12  1  0     0  0
 11 13  1  0     0  0
 13 14  1  0     0  0
 14 15  1  0     0  0
 15 16  1  0     0  0
 11 16  1  0     0  0
 15 17  1  0     0  0
 17 18  2  0     0  0
 18 19  1  0     0  0
 19 20  2  0     0  0
 20 21  1  0     0  0
 21 22  2  0     0  0
 17 22  1  0     0  0
 12 23  2  0     0  0
 12 24  2  0     0  0
 11 25  1  1     0  0
 14 26  1  0     0  0
 14 27  1  0     0  0
 19 28  1  0     0  0
 29 30  1  0     0  0
 29 22  1  0     0  0
 29 31  2  0     0  0
 12 30  1  0     0  0
 32 28  1  0     0  0
 28 33  1  0     0  0
 33 34  2  0     0  0
 34 35  1  0     0  0
 32 35  2  0     0  0
 35 36  1  0     0  0
 36 37  1  0     0  0
 37 38  1  0     0  0
 38 39  1  0     0  0
 40 39  1  0     0  0
 39 41  1  0     0  0
 41 40  1  0     0  0
 42 41  1  0     0  0
 41 43  1  0     0  0
 43 42  1  0     0  0
 44 40  1  0     0  0
 40 45  1  0     0  0
 45 44  1  0     0  0
  3  7  1  0     0  0
M  END
