 
 
 
 58 62  0  0  1  0  0  0  0  0999 V2000
   17.0853  -17.0177    0.0000 C   0  0  0  0  0  0  0  0  0  0  0  0
   17.0853  -18.4180    0.0000 C   0  0  0  0  0  0  0  0  0  0  0  0
   18.2756  -19.1182    0.0000 C   0  0  0  0  0  0  0  0  0  0  0  0
   19.5359  -18.4180    0.0000 C   0  0  0  0  0  0  0  0  0  0  0  0
   19.5359  -17.0177    0.0000 C   0  0  0  0  0  0  0  0  0  0  0  0
   18.2756  -16.3175    0.0000 C   0  0  0  0  0  0  0  0  0  0  0  0
   20.7262  -19.1182    0.0000 C   0  0  0  0  0  0  0  0  0  0  0  0
   21.9165  -18.4180    0.0000 C   0  0  0  0  0  0  0  0  0  0  0  0
   21.9165  -17.0177    0.0000 C   0  0  0  0  0  0  0  0  0  0  0  0
   20.7262  -16.3175    0.0000 C   0  0  0  0  0  0  0  0  0  0  0  0
   15.8951  -19.1182    0.0000 C   0  0  0  0  0  0  0  0  0  0  0  0
   14.7048  -18.4180    0.0000 C   0  0  0  0  0  0  0  0  0  0  0  0
   13.4445  -19.1182    0.0000 C   0  0  0  0  0  0  0  0  0  0  0  0
   13.4445  -20.5186    0.0000 C   0  0  0  0  0  0  0  0  0  0  0  0
   14.6347  -21.2187    0.0000 C   0  0  0  0  0  0  0  0  0  0  0  0
   15.8951  -20.5186    0.0000 C   0  0  0  0  0  0  0  0  0  0  0  0
   12.1141  -18.6981    0.0000 N   0  0  0  0  0  0  0  0  0  0  0  0
   11.3439  -19.8184    0.0000 C   0  0  0  0  0  0  0  0  0  0  0  0
   12.1141  -20.9387    0.0000 N   0  0  0  0  0  0  0  0  0  0  0  0
   23.1068  -16.3175    0.0000 C   0  0  0  0  0  0  0  0  0  0  0  0
   25.9775  -16.7376    0.0000 C   0  0  0  0  0  0  0  0  0  0  0  0
   27.1678  -17.4378    0.0000 O   0  0  0  0  0  0  0  0  0  0  0  0
   24.7872  -17.4378    0.0000 O   0  0  0  0  0  0  0  0  0  0  0  0
   24.7872  -18.8381    0.0000 C   0  0  0  0  0  0  0  0  0  0  0  0
   25.9775  -15.3373    0.0000 N   0  0  0  0  0  0  0  0  0  0  0  0
   27.1678  -14.6371    0.0000 C   0  0  0  0  0  0  0  0  0  0  0  0
   28.3581  -15.3373    0.0000 C   0  0  0  0  0  0  0  0  0  0  0  0
   29.5484  -14.6371    0.0000 C   0  0  0  0  0  0  0  0  0  0  0  0
   28.3581  -16.7376    0.0000 C   0  0  0  0  0  0  0  0  0  0  0  0
   27.1678  -13.2368    0.0000 C   0  0  0  0  0  0  0  0  0  0  0  0
   28.3581  -12.5366    0.0000 O   0  0  0  0  0  0  0  0  0  0  0  0
   25.8375  -12.3966    0.0000 N   0  0  0  0  0  0  0  0  0  0  0  0
   25.6975  -10.9962    0.0000 C   0  0  0  0  0  0  0  0  0  0  0  0
   24.2971  -10.7162    0.0000 C   0  0  0  0  0  0  0  0  0  0  0  0
   23.5969  -11.9064    0.0000 C   0  0  0  0  0  0  0  0  0  0  0  0
   24.5772  -12.9567    0.0000 C   0  0  0  0  0  0  0  0  0  0  0  0
   24.2271  -14.2870    0.0000 C   0  0  0  0  0  0  0  0  0  0  0  0
   22.9668  -14.9172    0.0000 N   0  0  0  0  0  0  0  0  0  0  0  0
   24.5072  -16.5976    0.0000 C   0  0  0  0  0  0  0  0  0  0  0  0
   25.2073  -15.4073    0.0000 N   0  0  0  0  0  0  0  0  0  0  0  0
    9.9436  -19.8184    0.0000 C   0  0  0  0  0  0  0  0  0  0  0  0
    9.1034  -18.6981    0.0000 N   0  0  0  0  0  0  0  0  0  0  0  0
    7.7731  -19.1182    0.0000 C   0  0  0  0  0  0  0  0  0  0  0  0
    7.7731  -20.5186    0.0000 C   0  0  0  0  0  0  0  0  0  0  0  0
    9.1034  -20.9387    0.0000 C   0  0  0  0  0  0  0  0  0  0  0  0
    9.1034  -17.2978    0.0000 C   0  0  0  0  0  0  0  0  0  0  0  0
    7.9131  -16.5976    0.0000 O   0  0  0  0  0  0  0  0  0  0  0  0
   10.3637  -16.5976    0.0000 C   0  0  0  0  0  0  0  0  0  0  0  0
   11.5540  -17.3678    0.0000 N   0  0  0  0  0  0  0  0  0  0  0  0
   10.3637  -15.1973    0.0000 C   0  0  0  0  0  0  0  0  0  0  0  0
   12.7443  -16.6676    0.0000 C   0  0  0  0  0  0  0  0  0  0  0  0
   13.9346  -17.3678    0.0000 O   0  0  0  0  0  0  0  0  0  0  0  0
   15.1949  -16.6676    0.0000 C   0  0  0  0  0  0  0  0  0  0  0  0
   12.7443  -15.2673    0.0000 O   0  0  0  0  0  0  0  0  0  0  0  0
   11.5540  -14.5671    0.0000 C   0  0  0  0  0  0  0  0  0  0  0  0
    9.1734  -14.5671    0.0000 C   0  0  0  0  0  0  0  0  0  0  0  0
   21.9800  -21.6300    0.0000 Cl  0  0  0  0  0  0  0  0  0  0  0  0
   24.5000  -21.5600    0.0000 Cl  0  0  0  0  0  0  0  0  0  0  0  0
  1  2  2  0     0  0
  2  3  1  0     0  0
  3  4  2  0     0  0
  4  5  1  0     0  0
  5  6  2  0     0  0
  1  6  1  0     0  0
  4  7  1  0     0  0
  7  8  2  0     0  0
  8  9  1  0     0  0
  9 10  2  0     0  0
  5 10  1  0     0  0
  2 11  1  0     0  0
 11 12  2  0     0  0
 12 13  1  0     0  0
 13 14  2  0     0  0
 14 15  1  0     0  0
 15 16  2  0     0  0
 11 16  1  0     0  0
 13 17  1  0     0  0
 17 18  2  0     0  0
 18 19  1  0     0  0
 14 19  1  0     0  0
  9 20  1  0     0  0
 21 22  2  0     0  0
 21 23  1  0     0  0
 23 24  1  0     0  0
 21 25  1  0     0  0
 25 26  1  0     0  0
 26 27  1  6     0  0
 27 28  1  0     0  0
 27 29  1  0     0  0
 26 30  1  0     0  0
 30 31  2  0     0  0
 30 32  1  0     0  0
 32 33  1  0     0  0
 33 34  1  0     0  0
 34 35  1  0     0  0
 35 36  1  0     0  0
 32 36  1  0     0  0
 36 37  1  6     0  0
 37 38  1  0     0  0
 38 20  1  0     0  0
 20 39  2  0     0  0
 39 40  1  0     0  0
 37 40  2  0     0  0
 41 18  1  6     0  0
 41 42  1  0     0  0
 42 43  1  0     0  0
 43 44  1  0     0  0
 44 45  1  0     0  0
 41 45  1  0     0  0
 46 47  2  0     0  0
 46 48  1  0     0  0
 48 49  1  0     0  0
 48 50  1  6     0  0
 49 51  1  0     0  0
 51 52  1  0     0  0
 52 53  1  0     0  0
 51 54  2  0     0  0
 50 55  1  0     0  0
 50 56  1  0     0  0
 46 42  1  0     0  0
M  END
