 
 
 
 29 33  0  0  0  0  0  0  0  0999 V2000
   17.6338  -16.5867    0.0000 C   0  0  0  0  0  0  0  0  0  0  0  0
   17.6338  -15.1926    0.0000 C   0  0  0  0  0  0  0  0  0  0  0  0
   18.8188  -14.4955    0.0000 C   0  0  0  0  0  0  0  0  0  0  0  0
   20.0735  -15.1926    0.0000 N   0  0  0  0  0  0  0  0  0  0  0  0
   20.0735  -16.5867    0.0000 C   0  0  0  0  0  0  0  0  0  0  0  0
   18.8188  -17.2838    0.0000 N   0  0  0  0  0  0  0  0  0  0  0  0
   16.4488  -17.2838    0.0000 C   0  0  0  0  0  0  0  0  0  0  0  0
   15.1940  -16.5867    0.0000 C   0  0  0  0  0  0  0  0  0  0  0  0
   15.1940  -15.1926    0.0000 N   0  0  0  0  0  0  0  0  0  0  0  0
   16.4488  -14.4955    0.0000 C   0  0  0  0  0  0  0  0  0  0  0  0
   14.0090  -14.4955    0.0000 C   0  0  0  0  0  0  0  0  0  0  0  0
   12.8240  -15.1926    0.0000 C   0  0  0  0  0  0  0  0  0  0  0  0
   12.8240  -16.5867    0.0000 C   0  0  0  0  0  0  0  0  0  0  0  0
   11.5693  -17.2838    0.0000 C   0  0  0  0  0  0  0  0  0  0  0  0
   10.3843  -16.5867    0.0000 C   0  0  0  0  0  0  0  0  0  0  0  0
   10.3843  -15.1926    0.0000 C   0  0  0  0  0  0  0  0  0  0  0  0
   11.5693  -14.4955    0.0000 C   0  0  0  0  0  0  0  0  0  0  0  0
   18.8188  -13.1014    0.0000 O   0  0  0  0  0  0  0  0  0  0  0  0
   21.2585  -14.4955    0.0000 C   0  0  0  0  0  0  0  0  0  0  0  0
   22.4435  -15.1926    0.0000 C   0  0  0  0  0  0  0  0  0  0  0  0
   23.6286  -14.4955    0.0000 C   0  0  0  0  0  0  0  0  0  0  0  0
   24.8833  -15.1926    0.0000 C   0  0  0  0  0  0  0  0  0  0  0  0
   24.8833  -16.5867    0.0000 C   0  0  0  0  0  0  0  0  0  0  0  0
   23.6983  -17.2838    0.0000 C   0  0  0  0  0  0  0  0  0  0  0  0
   22.4435  -16.5867    0.0000 C   0  0  0  0  0  0  0  0  0  0  0  0
   23.6286  -13.1014    0.0000 C   0  0  0  0  0  0  0  0  0  0  0  0
   21.1191  -17.4929    0.0000 N   0  0  0  0  0  0  0  0  0  0  0  0
   20.4917  -18.8173    0.0000 C   0  0  0  0  0  0  0  0  0  0  0  0
   19.0976  -18.6779    0.0000 C   0  0  0  0  0  0  0  0  0  0  0  0
  1  2  2  0     0  0
  2  3  1  0     0  0
  3  4  1  0     0  0
  4  5  1  0     0  0
  5  6  1  0     0  0
  1  6  1  0     0  0
  1  7  1  0     0  0
  7  8  1  0     0  0
  8  9  1  0     0  0
  9 10  1  0     0  0
  2 10  1  0     0  0
  9 11  1  0     0  0
 11 12  1  0     0  0
 12 13  2  0     0  0
 13 14  1  0     0  0
 14 15  2  0     0  0
 15 16  1  0     0  0
 16 17  2  0     0  0
 12 17  1  0     0  0
  3 18  2  0     0  0
  4 19  1  0     0  0
 19 20  1  0     0  0
 20 21  2  0     0  0
 21 22  1  0     0  0
 22 23  2  0     0  0
 23 24  1  0     0  0
 24 25  2  0     0  0
 20 25  1  0     0  0
 21 26  1  0     0  0
  5 27  2  0     0  0
 27 28  1  0     0  0
 28 29  1  0     0  0
  6 29  1  0     0  0
M  END
