 
 
 
 42 47  0  0  1  0  0  0  0  0999 V2000
    4.4800   -8.8900    0.0000 C   0  0  0  0  0  0  0  0  0  0  0  0
    4.4800  -10.2900    0.0000 N   0  0  0  0  0  0  0  0  0  0  0  0
    5.6924  -10.9900    0.0000 C   0  0  0  0  0  0  0  0  0  0  0  0
    6.9049  -10.2900    0.0000 C   0  0  0  0  0  0  0  0  0  0  0  0
    6.9049   -8.8900    0.0000 C   0  0  0  0  0  0  0  0  0  0  0  0
    5.6924   -8.1900    0.0000 N   0  0  0  0  0  0  0  0  0  0  0  0
    8.2364  -10.7226    0.0000 C   0  0  0  0  0  0  0  0  0  0  0  0
    9.0593   -9.5900    0.0000 C   0  0  0  0  0  0  0  0  0  0  0  0
    8.2364   -8.4574    0.0000 N   0  0  0  0  0  0  0  0  0  0  0  0
    5.6924  -12.3898    0.0000 N   0  0  0  0  0  0  0  0  0  0  0  0
    4.4632  -13.0997    0.0000 C   0  0  0  0  0  0  0  0  0  0  0  0
    4.4634  -14.4997    0.0000 C   0  0  0  0  0  0  0  0  0  0  0  0
    5.6759  -15.1996    0.0000 O   0  0  0  0  0  0  0  0  0  0  0  0
    6.9051  -14.4897    0.0000 C   0  0  0  0  0  0  0  0  0  0  0  0
    6.9049  -13.0897    0.0000 C   0  0  0  0  0  0  0  0  0  0  0  0
   10.4300   -9.5900    0.0000 C   0  0  0  0  0  0  0  0  0  0  0  0
   11.1300  -10.8024    0.0000 C   0  0  0  0  0  0  0  0  0  0  0  0
   12.5300  -10.8024    0.0000 C   0  0  0  0  0  0  0  0  0  0  0  0
   13.2300   -9.5900    0.0000 C   0  0  0  0  0  0  0  0  0  0  0  0
   12.5300   -8.3776    0.0000 C   0  0  0  0  0  0  0  0  0  0  0  0
   11.1300   -8.3776    0.0000 C   0  0  0  0  0  0  0  0  0  0  0  0
   14.6300   -9.5900    0.0000 N   0  0  0  0  0  0  0  0  0  0  0  0
   15.3300   -8.3776    0.0000 C   0  0  0  0  0  0  0  0  0  0  0  0
   16.7298   -8.3776    0.0000 C   0  0  0  0  0  0  0  0  0  0  0  0
   14.6396   -7.1821    0.0000 O   0  0  0  0  0  0  0  0  0  0  0  0
   17.4397   -9.6068    0.0000 N   0  0  0  0  0  0  0  0  0  0  0  0
   18.8397   -9.6066    0.0000 C   0  0  0  0  0  0  0  0  0  0  0  0
   19.5396   -8.3941    0.0000 C   0  0  0  0  0  0  0  0  0  0  0  0
   18.8297   -7.1649    0.0000 C   0  0  0  0  0  0  0  0  0  0  0  0
   17.4297   -7.1651    0.0000 C   0  0  0  0  0  0  0  0  0  0  0  0
   19.5406   -5.9337    0.0000 C   0  0  0  0  0  0  0  0  0  0  0  0
   20.9299   -5.9339    0.0000 N   0  0  0  0  0  0  0  0  0  0  0  0
   21.6368   -7.1585    0.0000 C   0  0  0  0  0  0  0  0  0  0  0  0
   23.0368   -7.1585    0.0000 C   0  0  0  0  0  0  0  0  0  0  0  0
   23.7369   -5.9462    0.0000 C   0  0  0  0  0  0  0  0  0  0  0  0
   23.0300   -4.7216    0.0000 C   0  0  0  0  0  0  0  0  0  0  0  0
   21.6300   -4.7215    0.0000 C   0  0  0  0  0  0  0  0  0  0  0  0
   23.7439   -3.4857    0.0000 N   0  0  0  0  0  0  0  0  0  0  0  0
   25.1299   -3.4863    0.0000 C   0  0  0  0  0  0  0  0  0  0  0  0
   25.8245   -2.2844    0.0000 C   0  0  0  0  0  0  0  0  0  0  0  0
   25.8355   -4.7093    0.0000 O   0  0  0  0  0  0  0  0  0  0  0  0
   27.2298   -2.2849    0.0000 C   0  0  0  0  0  0  0  0  0  0  0  0
  1  2  2  0     0  0
  2  3  1  0     0  0
  3  4  2  0     0  0
  4  5  1  0     0  0
  5  6  2  0     0  0
  1  6  1  0     0  0
  4  7  1  0     0  0
  7  8  2  0     0  0
  8  9  1  0     0  0
  5  9  1  0     0  0
  3 10  1  0     0  0
 10 11  1  0     0  0
 11 12  1  0     0  0
 12 13  1  0     0  0
 13 14  1  0     0  0
 14 15  1  0     0  0
 10 15  1  0     0  0
  8 16  1  0     0  0
 16 17  2  0     0  0
 17 18  1  0     0  0
 18 19  2  0     0  0
 19 20  1  0     0  0
 20 21  2  0     0  0
 16 21  1  0     0  0
 19 22  1  0     0  0
 22 23  1  0     0  0
 23 24  1  0     0  0
 23 25  2  0     0  0
 24 26  2  0     0  0
 26 27  1  0     0  0
 27 28  2  0     0  0
 28 29  1  0     0  0
 29 30  2  0     0  0
 24 30  1  0     0  0
 29 31  1  0     0  0
 31 32  1  0     0  0
 32 33  1  0     0  0
 33 34  1  0     0  0
 34 35  1  0     0  0
 35 36  1  0     0  0
 36 37  1  0     0  0
 32 37  1  0     0  0
 36 38  1  6     0  0
 38 39  1  0     0  0
 39 40  1  0     0  0
 39 41  2  0     0  0
 40 42  2  0     0  0
M  END
