 
 
 
 13 14  0  0  0  0  0  0  0  0999 V2000
   18.4464  -15.9914    0.0000 C   0  0  0  0  0  0  0  0  0  0  0  0
   17.2541  -15.2901    0.0000 C   0  0  0  0  0  0  0  0  0  0  0  0
   18.4464  -17.3942    0.0000 C   0  0  0  0  0  0  0  0  0  0  0  0
   19.7089  -15.2901    0.0000 C   0  0  0  0  0  0  0  0  0  0  0  0
   16.0617  -15.9914    0.0000 C   0  0  0  0  0  0  0  0  0  0  0  0
   17.2541  -18.0956    0.0000 C   0  0  0  0  0  0  0  0  0  0  0  0
   20.9012  -15.9914    0.0000 C   0  0  3  0  0  0  0  0  0  0  0  0
   16.0617  -17.3942    0.0000 C   0  0  0  0  0  0  0  0  0  0  0  0
   22.0936  -15.2901    0.0000 N   0  0  0  0  0  0  0  0  0  0  0  0
   20.9012  -17.3942    0.0000 C   0  0  0  0  0  0  0  0  0  0  0  0
   14.7291  -15.5706    0.0000 O   0  0  0  0  0  0  0  0  0  0  0  0
   13.8874  -16.6928    0.0000 C   0  0  0  0  0  0  0  0  0  0  0  0
   14.7291  -17.8150    0.0000 O   0  0  0  0  0  0  0  0  0  0  0  0
  1  2  2  0     0  0
  1  3  1  0     0  0
  1  4  1  0     0  0
  2  5  1  0     0  0
  3  6  2  0     0  0
  4  7  1  0     0  0
  5  8  2  0     0  0
  7  9  1  0     0  0
  7 10  1  0     0  0
  6  8  1  0     0  0
  5 11  1  0     0  0
 11 12  1  0     0  0
 12 13  1  0     0  0
  8 13  1  0     0  0
M  END
