 
 
 
 91104  0  0  1  0  0  0  0  0999 V2000
   27.6143  -12.2032    0.0000 C   0  0  0  0  0  0  0  0  0  0  0  0
   26.8472  -11.0875    0.0000 C   0  0  0  0  0  0  0  0  0  0  0  0
   25.5223  -11.0875    0.0000 C   0  0  0  0  0  0  0  0  0  0  0  0
   24.8947  -12.4821    0.0000 N   0  0  0  0  0  0  0  0  0  0  0  0
   25.6618  -13.5281    0.0000 C   0  0  0  0  0  0  0  0  0  0  0  0
   27.0564  -13.5281    0.0000 C   0  0  0  0  0  0  0  0  0  0  0  0
   24.7553   -9.9717    0.0000 N   0  0  0  0  0  0  0  0  0  0  0  0
   23.3606   -9.9717    0.0000 C   0  0  0  0  0  0  0  0  0  0  0  0
   22.5936   -8.9257    0.0000 C   0  0  0  0  0  0  0  0  0  0  0  0
   21.2687   -8.9257    0.0000 C   0  0  0  0  0  0  0  0  0  0  0  0
   20.6411  -10.2507    0.0000 C   0  0  0  0  0  0  0  0  0  0  0  0
   25.1039  -14.8530    0.0000 S   0  0  0  0  0  0  0  0  0  0  0  0
   19.2464  -10.2507    0.0000 C   0  0  0  0  0  0  0  0  0  0  0  0
   18.7583  -11.5058    0.0000 C   0  0  0  0  0  0  0  0  0  0  0  0
   19.8740  -12.4124    0.0000 N   0  0  0  0  0  0  0  0  0  0  0  0
   20.9897  -11.5756    0.0000 C   0  0  0  0  0  0  0  0  0  0  0  0
   19.8740  -13.8767    0.0000 C   0  0  0  0  0  0  0  0  0  0  0  0
   18.6886  -14.5043    0.0000 N   0  0  0  0  0  0  0  0  0  0  0  0
   18.6886  -15.8990    0.0000 C   0  0  0  0  0  0  0  0  0  0  0  0
   19.8740  -16.5963    0.0000 C   0  0  0  0  0  0  0  0  0  0  0  0
   21.0595  -15.8990    0.0000 C   0  0  0  0  0  0  0  0  0  0  0  0
   21.0595  -14.5741    0.0000 C   0  0  0  0  0  0  0  0  0  0  0  0
   26.3591  -15.4806    0.0000 O   0  0  0  0  0  0  0  0  0  0  0  0
   25.1039  -16.2477    0.0000 O   0  0  0  0  0  0  0  0  0  0  0  0
   20.1529   -8.9955    0.0000 H   0  0  0  0  0  0  0  0  0  0  0  0
   17.7123  -10.5993    0.0000 C   0  0  0  0  0  0  0  0  0  0  0  0
   18.2004  -12.8308    0.0000 C   0  0  0  0  0  0  0  0  0  0  0  0
   17.4334  -16.5266    0.0000 N   0  0  0  0  0  0  0  0  0  0  0  0
   22.2449  -13.8767    0.0000 C   0  0  0  0  0  0  0  0  0  0  0  0
   23.4304  -14.8530    0.0000 N   0  5  0  0  0  0  0  0  0  0  0  0
   22.2449  -12.4821    0.0000 O   0  0  0  0  0  0  0  0  0  0  0  0
   17.4334  -17.9212    0.0000 N   0  0  0  0  0  0  0  0  0  0  0  0
   16.1085  -16.1082    0.0000 C   0  0  0  0  0  0  0  0  0  0  0  0
   15.2717  -17.2239    0.0000 C   0  0  0  0  0  0  0  0  0  0  0  0
   16.1085  -18.3396    0.0000 C   0  0  0  0  0  0  0  0  0  0  0  0
   15.6901  -19.6645    0.0000 O   0  0  0  0  0  0  0  0  0  0  0  0
   14.2954  -19.6645    0.0000 C   0  0  0  0  0  0  0  0  0  0  0  0
   13.5981  -20.8500    0.0000 C   0  0  0  0  0  0  0  0  0  0  0  0
   12.2034  -20.8500    0.0000 C   0  0  0  0  0  0  0  0  0  0  0  0
   11.0180  -20.2224    0.0000 C   0  0  0  0  0  0  0  0  0  0  0  0
   11.0180  -21.6170    0.0000 C   0  0  0  0  0  0  0  0  0  0  0  0
    9.7628  -22.4538    0.0000 C   0  0  0  0  0  0  0  0  0  0  0  0
   11.0180  -22.9420    0.0000 C   0  0  0  0  0  0  0  0  0  0  0  0
    9.6931  -19.3856    0.0000 C   0  0  0  0  0  0  0  0  0  0  0  0
   11.0180  -18.8278    0.0000 C   0  0  0  0  0  0  0  0  0  0  0  0
   30.1700  -15.1900    0.0000 Ca  0  2  0  0  0  0  0  0  0  0  0  0
   27.6143  -12.2032    0.0000 C   0  0  0  0  0  0  0  0  0  0  0  0
   26.8472  -11.0875    0.0000 C   0  0  0  0  0  0  0  0  0  0  0  0
   25.5223  -11.0875    0.0000 C   0  0  0  0  0  0  0  0  0  0  0  0
   24.8947  -12.4821    0.0000 N   0  0  0  0  0  0  0  0  0  0  0  0
   25.6618  -13.5281    0.0000 C   0  0  0  0  0  0  0  0  0  0  0  0
   27.0564  -13.5281    0.0000 C   0  0  0  0  0  0  0  0  0  0  0  0
   25.1039  -14.8530    0.0000 S   0  0  0  0  0  0  0  0  0  0  0  0
   26.3591  -15.4806    0.0000 O   0  0  0  0  0  0  0  0  0  0  0  0
   25.1039  -16.2477    0.0000 O   0  0  0  0  0  0  0  0  0  0  0  0
   23.4304  -14.8530    0.0000 N   0  5  0  0  0  0  0  0  0  0  0  0
   22.2449  -13.8767    0.0000 C   0  0  0  0  0  0  0  0  0  0  0  0
   21.0595  -14.5741    0.0000 C   0  0  0  0  0  0  0  0  0  0  0  0
   21.0595  -15.8990    0.0000 C   0  0  0  0  0  0  0  0  0  0  0  0
   19.8740  -16.5963    0.0000 C   0  0  0  0  0  0  0  0  0  0  0  0
   18.6886  -15.8990    0.0000 C   0  0  0  0  0  0  0  0  0  0  0  0
   18.6886  -14.5043    0.0000 N   0  0  0  0  0  0  0  0  0  0  0  0
   19.8740  -13.8767    0.0000 C   0  0  0  0  0  0  0  0  0  0  0  0
   19.8740  -12.4124    0.0000 N   0  0  0  0  0  0  0  0  0  0  0  0
   18.7583  -11.5058    0.0000 C   0  0  0  0  0  0  0  0  0  0  0  0
   19.2464  -10.2507    0.0000 C   0  0  0  0  0  0  0  0  0  0  0  0
   20.6411  -10.2507    0.0000 C   0  0  0  0  0  0  0  0  0  0  0  0
   21.2687   -8.9257    0.0000 C   0  0  0  0  0  0  0  0  0  0  0  0
   22.5936   -8.9257    0.0000 C   0  0  0  0  0  0  0  0  0  0  0  0
   23.3606   -9.9717    0.0000 C   0  0  0  0  0  0  0  0  0  0  0  0
   24.7553   -9.9717    0.0000 N   0  0  0  0  0  0  0  0  0  0  0  0
   20.9897  -11.5756    0.0000 C   0  0  0  0  0  0  0  0  0  0  0  0
   20.1529   -8.9955    0.0000 H   0  0  0  0  0  0  0  0  0  0  0  0
   17.7123  -10.5993    0.0000 C   0  0  0  0  0  0  0  0  0  0  0  0
   18.2004  -12.8308    0.0000 C   0  0  0  0  0  0  0  0  0  0  0  0
   17.4334  -16.5266    0.0000 N   0  0  0  0  0  0  0  0  0  0  0  0
   17.4334  -17.9212    0.0000 N   0  0  0  0  0  0  0  0  0  0  0  0
   16.1085  -18.3396    0.0000 C   0  0  0  0  0  0  0  0  0  0  0  0
   15.2717  -17.2239    0.0000 C   0  0  0  0  0  0  0  0  0  0  0  0
   16.1085  -16.1082    0.0000 C   0  0  0  0  0  0  0  0  0  0  0  0
   15.6901  -19.6645    0.0000 O   0  0  0  0  0  0  0  0  0  0  0  0
   14.2954  -19.6645    0.0000 C   0  0  0  0  0  0  0  0  0  0  0  0
   13.5981  -20.8500    0.0000 C   0  0  0  0  0  0  0  0  0  0  0  0
   12.2034  -20.8500    0.0000 C   0  0  0  0  0  0  0  0  0  0  0  0
   11.0180  -20.2224    0.0000 C   0  0  0  0  0  0  0  0  0  0  0  0
   11.0180  -21.6170    0.0000 C   0  0  0  0  0  0  0  0  0  0  0  0
    9.7628  -22.4538    0.0000 C   0  0  0  0  0  0  0  0  0  0  0  0
   11.0180  -22.9420    0.0000 C   0  0  0  0  0  0  0  0  0  0  0  0
    9.6931  -19.3856    0.0000 C   0  0  0  0  0  0  0  0  0  0  0  0
   11.0180  -18.8278    0.0000 C   0  0  0  0  0  0  0  0  0  0  0  0
   22.2449  -12.4821    0.0000 O   0  0  0  0  0  0  0  0  0  0  0  0
  1  2  2  0     0  0
  2  3  1  0     0  0
  3  4  2  0     0  0
  4  5  1  0     0  0
  5  6  2  0     0  0
  1  6  1  0     0  0
  7  8  1  0     0  0
  8  9  1  0     0  0
  9 10  1  0     0  0
 10 11  1  0     0  0
  5 12  1  0     0  0
 11 13  1  0     0  0
 13 14  1  0     0  0
 14 15  1  0     0  0
 15 16  1  0     0  0
 11 16  1  0     0  0
 15 17  1  0     0  0
 17 18  2  0     0  0
 18 19  1  0     0  0
 19 20  2  0     0  0
 20 21  1  0     0  0
 21 22  2  0     0  0
 17 22  1  0     0  0
 12 23  2  0     0  0
 12 24  2  0     0  0
 11 25  1  1     0  0
 14 26  1  0     0  0
 14 27  1  0     0  0
 19 28  1  0     0  0
 29 30  1  0     0  0
 29 22  1  0     0  0
 29 31  2  0     0  0
 12 30  1  0     0  0
 32 28  1  0     0  0
 28 33  1  0     0  0
 33 34  2  0     0  0
 34 35  1  0     0  0
 32 35  2  0     0  0
 35 36  1  0     0  0
 36 37  1  0     0  0
 37 38  1  0     0  0
 38 39  1  0     0  0
 40 39  1  0     0  0
 39 41  1  0     0  0
 41 40  1  0     0  0
 42 41  1  0     0  0
 41 43  1  0     0  0
 43 42  1  0     0  0
 44 40  1  0     0  0
 40 45  1  0     0  0
 45 44  1  0     0  0
  3  7  1  0     0  0
 47 48  2  0     0  0
 48 49  1  0     0  0
 49 50  2  0     0  0
 50 51  1  0     0  0
 51 52  2  0     0  0
 47 52  1  0     0  0
 71 70  1  0     0  0
 70 69  1  0     0  0
 69 68  1  0     0  0
 68 67  1  0     0  0
 51 53  1  0     0  0
 67 66  1  0     0  0
 66 65  1  0     0  0
 65 64  1  0     0  0
 64 72  1  0     0  0
 67 72  1  0     0  0
 64 63  1  0     0  0
 63 62  2  0     0  0
 62 61  1  0     0  0
 61 60  2  0     0  0
 60 59  1  0     0  0
 59 58  2  0     0  0
 63 58  1  0     0  0
 53 54  2  0     0  0
 53 55  2  0     0  0
 67 73  1  1     0  0
 65 74  1  0     0  0
 65 75  1  0     0  0
 61 76  1  0     0  0
 57 56  1  0     0  0
 57 58  1  0     0  0
 57 91  2  0     0  0
 53 56  1  0     0  0
 77 76  1  0     0  0
 76 80  1  0     0  0
 80 79  2  0     0  0
 79 78  1  0     0  0
 77 78  2  0     0  0
 78 81  1  0     0  0
 81 82  1  0     0  0
 82 83  1  0     0  0
 83 84  1  0     0  0
 85 84  1  0     0  0
 84 86  1  0     0  0
 86 85  1  0     0  0
 87 86  1  0     0  0
 86 88  1  0     0  0
 88 87  1  0     0  0
 89 85  1  0     0  0
 85 90  1  0     0  0
 90 89  1  0     0  0
 49 71  1  0     0  0
M  CHG  3  30  -1  46   2  56  -1
M  STY  1   1 MUL
M  SLB  1   1   1
M  SCN  1   1 HT 
M  SAL   1 15   1   2   3   4   5   6   7   8   9  10  11  12  13  14  15
M  SAL   1 15  16  17  18  19  20  21  22  23  24  25  26  27  28  29  30
M  SAL   1 15  31  32  33  34  35  36  37  38  39  40  41  42  43  44  45
M  SAL   1 15  47  48  49  50  51  52  53  54  55  56  57  58  59  60  61
M  SAL   1 15  62  63  64  65  66  67  68  69  70  71  72  73  74  75  76
M  SAL   1 15  77  78  79  80  81  82  83  84  85  86  87  88  89  90  91
M  SPA   1 15   1   2   3   4   5   6  12  23  24  30  29  22  21  20  19
M  SPA   1 15  18  17  15  14  13  11  10   9   8   7  16  25  26  27  28
M  SPA   1 15  32  35  34  33  36  37  38  39  40  41  42  43  44  45  31
M  SDI   1  4    9.0300  -23.3800    9.0300   -7.3500
M  SDI   1  4   28.2100   -7.3500   28.2100  -23.3800
M  SMT   1 2
M  END
