 
 
 
 24 24  0  0  0  0  0  0  0  0999 V2000
   11.4100  -18.0600    0.0000 C   0  0  0  0  0  0  0  0  0  0  0  0
   11.4100  -19.4600    0.0000 C   0  0  0  0  0  0  0  0  0  0  0  0
   12.6700  -20.1600    0.0000 C   0  0  0  0  0  0  0  0  0  0  0  0
   13.8600  -19.4600    0.0000 C   0  0  0  0  0  0  0  0  0  0  0  0
   13.8600  -18.0600    0.0000 C   0  0  0  0  0  0  0  0  0  0  0  0
   12.6700  -17.3600    0.0000 C   0  0  0  0  0  0  0  0  0  0  0  0
   15.1200  -20.1600    0.0000 C   0  0  0  0  0  0  0  0  0  0  0  0
   16.3100  -18.0600    0.0000 C   0  0  0  0  0  0  0  0  0  0  0  0
   15.1200  -17.3600    0.0000 C   0  0  0  0  0  0  0  0  0  0  0  0
   17.5000  -17.3600    0.0000 C   0  0  0  0  0  0  0  0  0  0  0  0
   18.7600  -18.0600    0.0000 C   0  0  0  0  0  0  0  0  0  0  0  0
   19.9500  -17.3600    0.0000 C   0  0  0  0  0  0  0  0  0  0  0  0
   17.5000  -15.9600    0.0000 C   0  0  0  0  0  0  0  0  0  0  0  0
   21.1400  -18.0600    0.0000 C   0  0  0  0  0  0  0  0  0  0  0  0
   22.3300  -17.3600    0.0000 C   0  0  0  0  0  0  0  0  0  0  0  0
   23.5200  -18.0600    0.0000 C   0  0  0  0  0  0  0  0  0  0  0  0
   22.3300  -15.9600    0.0000 C   0  0  0  0  0  0  0  0  0  0  0  0
   13.6500  -16.3800    0.0000 C   0  0  0  0  0  0  0  0  0  0  0  0
   11.6900  -16.3800    0.0000 C   0  0  0  0  0  0  0  0  0  0  0  0
   23.5200  -15.2600    0.0000 C   0  0  0  0  0  0  0  0  0  0  0  0
   23.5200  -13.8600    0.0000 O   0  0  0  0  0  0  0  0  0  0  0  0
   24.7100  -18.7600    0.0000 H   1  0  0  0  0  0  0  0  0  0  0  0
   22.8200  -19.2500    0.0000 H   1  0  0  0  0  0  0  0  0  0  0  0
   24.2200  -16.8700    0.0000 H   1  0  0  0  0  0  0  0  0  0  0  0
  1  2  1  0     0  0
  2  3  1  0     0  0
  3  4  1  0     0  0
  4  5  2  0     0  0
  5  6  1  0     0  0
  1  6  1  0     0  0
  4  7  1  0     0  0
  8  9  2  0     0  0
  5  9  1  0     0  0
  8 10  1  0     0  0
 10 11  2  0     0  0
 11 12  1  0     0  0
 10 13  1  0     0  0
 12 14  2  0     0  0
 14 15  1  0     0  0
 15 16  1  0     0  0
 15 17  2  0     0  0
  6 18  1  0     0  0
  6 19  1  0     0  0
 17 20  1  0     0  0
 20 21  1  0     0  0
 16 22  1  0     0  0
 16 23  1  0     0  0
 16 24  1  0     0  0
M  ISO  3  22   2  23   2  24   2
M  END
