 
 
 
 37 41  0  0  1  0  0  0  0  0999 V2000
   26.1800  -22.6800    0.0000 O   0  0  0  0  0  0  0  0  0  0  0  0
   26.1800  -21.2800    0.0000 C   0  0  0  0  0  0  0  0  0  0  0  0
   24.9900  -20.5800    0.0000 N   0  0  0  0  0  0  0  0  0  0  0  0
   23.7300  -21.2800    0.0000 C   0  0  0  0  0  0  0  0  0  0  0  0
   23.7300  -22.6800    0.0000 C   0  0  0  0  0  0  0  0  0  0  0  0
   24.9900  -23.3800    0.0000 C   0  0  0  0  0  0  0  0  0  0  0  0
   22.5400  -20.5800    0.0000 N   0  0  0  0  0  0  0  0  0  0  0  0
   21.3500  -21.2800    0.0000 C   0  0  0  0  0  0  0  0  0  0  0  0
   21.3500  -22.6800    0.0000 N   0  0  0  0  0  0  0  0  0  0  0  0
   22.5400  -23.3800    0.0000 C   0  0  0  0  0  0  0  0  0  0  0  0
   20.1600  -20.5800    0.0000 N   0  0  0  0  0  0  0  0  0  0  0  0
   18.9700  -21.2800    0.0000 C   0  0  0  0  0  0  0  0  0  0  0  0
   17.7800  -20.5800    0.0000 C   0  0  0  0  0  0  0  0  0  0  0  0
   17.7800  -19.1800    0.0000 C   0  0  0  0  0  0  0  0  0  0  0  0
   16.5200  -18.4800    0.0000 C   0  0  0  0  0  0  0  0  0  0  0  0
   15.3300  -19.1800    0.0000 C   0  0  0  0  0  0  0  0  0  0  0  0
   15.3300  -20.5800    0.0000 C   0  0  0  0  0  0  0  0  0  0  0  0
   16.5200  -21.2800    0.0000 C   0  0  0  0  0  0  0  0  0  0  0  0
   14.1400  -18.4800    0.0000 C   0  0  0  0  0  0  0  0  0  0  0  0
   12.9500  -19.1800    0.0000 N   0  0  0  0  0  0  0  0  0  0  0  0
   11.7600  -18.4800    0.0000 C   0  0  0  0  0  0  0  0  0  0  0  0
   10.5000  -19.1800    0.0000 C   0  0  0  0  0  0  0  0  0  0  0  0
   10.5000  -20.5800    0.0000 N   0  0  0  0  0  0  0  0  0  0  0  0
   11.6900  -21.2800    0.0000 C   0  0  0  0  0  0  0  0  0  0  0  0
   12.9500  -20.5800    0.0000 C   0  0  0  0  0  0  0  0  0  0  0  0
    9.3100  -21.2800    0.0000 C   0  0  0  0  0  0  0  0  0  0  0  0
    8.1200  -20.5800    0.0000 C   0  0  0  0  0  0  0  0  0  0  0  0
    9.3100  -22.6800    0.0000 O   0  0  0  0  0  0  0  0  0  0  0  0
    6.9300  -21.2800    0.0000 C   0  0  0  0  0  0  0  0  0  0  0  0
   14.1400  -17.0800    0.0000 C   0  0  0  0  0  0  0  0  0  0  0  0
   18.9700  -22.6800    0.0000 C   0  0  0  0  0  0  0  0  0  0  0  0
   12.9500  -16.3800    0.0000 C   0  0  0  0  0  0  0  0  0  0  0  0
   11.5500  -16.3800    0.0000 C   0  0  0  0  0  0  0  0  0  0  0  0
   12.2500  -15.1900    0.0000 C   0  0  0  0  0  0  0  0  0  0  0  0
   27.3700  -20.5800    0.0000 O   0  0  0  0  0  0  0  0  0  0  0  0
   24.9900  -19.1800    0.0000 C   0  0  0  0  0  0  0  0  0  0  0  0
   26.2500  -18.4800    0.0000 C   0  0  0  0  0  0  0  0  0  0  0  0
  1  2  1  0     0  0
  2  3  1  0     0  0
  3  4  1  0     0  0
  4  5  1  0     0  0
  5  6  1  0     0  0
  1  6  1  0     0  0
  4  7  2  0     0  0
  7  8  1  0     0  0
  8  9  2  0     0  0
  9 10  1  0     0  0
  5 10  2  0     0  0
  8 11  1  0     0  0
 11 12  1  0     0  0
 12 13  1  0     0  0
 13 14  2  0     0  0
 14 15  1  0     0  0
 15 16  2  0     0  0
 16 17  1  0     0  0
 17 18  2  0     0  0
 13 18  1  0     0  0
 16 19  1  0     0  0
 19 20  1  0     0  0
 20 21  1  0     0  0
 21 22  1  0     0  0
 22 23  1  0     0  0
 23 24  1  0     0  0
 24 25  1  0     0  0
 20 25  1  0     0  0
 23 26  1  0     0  0
 26 27  1  0     0  0
 26 28  2  0     0  0
 27 29  2  0     0  0
 19 30  1  1     0  0
 12 31  1  1     0  0
 30 32  1  0     0  0
 32 33  1  0     0  0
 33 34  1  0     0  0
 34 32  1  0     0  0
  2 35  2  0     0  0
  3 36  1  0     0  0
 36 37  1  0     0  0
M  END
