 
 
 
 56 59  0  0  0  0  0  0  0  0999 V2000
   24.7049  -17.0065    0.0000 C   0  0  0  0  0  0  0  0  0  0  0  0
   24.7049  -15.6068    0.0000 C   0  0  0  0  0  0  0  0  0  0  0  0
   23.5152  -14.9069    0.0000 C   0  0  0  0  0  0  0  0  0  0  0  0
   22.2554  -15.6068    0.0000 C   0  0  0  0  0  0  0  0  0  0  0  0
   22.2554  -17.0065    0.0000 C   0  0  0  0  0  0  0  0  0  0  0  0
   23.5152  -17.7064    0.0000 C   0  0  0  0  0  0  0  0  0  0  0  0
   21.0657  -17.7064    0.0000 N   0  0  0  0  0  0  0  0  0  0  0  0
   19.8759  -17.0065    0.0000 C   0  0  0  0  0  0  0  0  0  0  0  0
   18.6862  -17.7064    0.0000 C   0  0  0  0  0  0  0  0  0  0  0  0
   17.4264  -17.0065    0.0000 C   0  0  0  0  0  0  0  0  0  0  0  0
   16.2367  -17.7064    0.0000 C   0  0  0  0  0  0  0  0  0  0  0  0
   16.2367  -19.1061    0.0000 C   0  0  0  0  0  0  0  0  0  0  0  0
   17.4264  -19.8059    0.0000 C   0  0  0  0  0  0  0  0  0  0  0  0
   18.6862  -19.1061    0.0000 C   0  0  0  0  0  0  0  0  0  0  0  0
   15.0469  -17.0765    0.0000 N   0  0  0  0  0  0  0  0  0  0  0  0
   13.7872  -17.7763    0.0000 C   0  0  0  0  0  0  0  0  0  0  0  0
   12.5974  -17.0765    0.0000 N   0  0  0  0  0  0  0  0  0  0  0  0
   11.4077  -17.7763    0.0000 C   0  0  0  0  0  0  0  0  0  0  0  0
   11.4077  -19.1761    0.0000 C   0  0  0  0  0  0  0  0  0  0  0  0
   12.5974  -19.8759    0.0000 C   0  0  0  0  0  0  0  0  0  0  0  0
   13.7872  -19.1761    0.0000 N   0  0  0  0  0  0  0  0  0  0  0  0
   10.0779  -17.0765    0.0000 C   0  0  0  0  0  0  0  0  0  0  0  0
   10.0779  -15.6768    0.0000 C   0  0  0  0  0  0  0  0  0  0  0  0
    8.8882  -14.9769    0.0000 N   0  0  0  0  0  0  0  0  0  0  0  0
    7.6984  -15.6768    0.0000 C   0  0  0  0  0  0  0  0  0  0  0  0
    7.6984  -17.0765    0.0000 C   0  0  0  0  0  0  0  0  0  0  0  0
    8.8882  -17.7763    0.0000 C   0  0  0  0  0  0  0  0  0  0  0  0
   15.0469  -19.8059    0.0000 C   0  0  0  0  0  0  0  0  0  0  0  0
   19.8759  -15.6068    0.0000 O   0  0  0  0  0  0  0  0  0  0  0  0
   25.8947  -19.1061    0.0000 C   0  0  0  0  0  0  0  0  0  0  0  0
   25.8947  -17.7064    0.0000 N   0  0  0  0  0  0  0  0  0  0  0  0
   27.2944  -19.5260    0.0000 N   0  0  0  0  0  0  0  0  0  0  0  0
   28.0642  -18.4062    0.0000 C   0  0  0  0  0  0  0  0  0  0  0  0
   27.2244  -17.2864    0.0000 C   0  0  0  0  0  0  0  0  0  0  0  0
   23.5152  -13.5072    0.0000 C   0  0  0  0  0  0  0  0  0  0  0  0
   22.1154  -13.5072    0.0000 F   0  0  0  0  0  0  0  0  0  0  0  0
   29.5339  -18.4062    0.0000 C   0  0  0  0  0  0  0  0  0  0  0  0
   24.9149  -13.5072    0.0000 F   0  0  0  0  0  0  0  0  0  0  0  0
   23.5152  -12.1075    0.0000 F   0  0  0  0  0  0  0  0  0  0  0  0
   44.7678  -13.5649    0.0000 C   0  0  0  0  0  0  0  0  0  0  0  0
   43.5789  -14.2642    0.0000 C   0  0  0  0  0  0  0  0  0  0  0  0
   42.3899  -13.5649    0.0000 C   0  0  0  0  0  0  0  0  0  0  0  0
   41.1310  -14.2642    0.0000 C   0  0  0  0  0  0  0  0  0  0  0  0
   39.9421  -13.5649    0.0000 C   0  0  0  0  0  0  0  0  0  0  0  0
   38.7531  -14.2642    0.0000 C   0  0  0  0  0  0  0  0  0  0  0  0
   37.5642  -13.5649    0.0000 C   0  0  0  0  0  0  0  0  0  0  0  0
   36.3752  -14.2642    0.0000 C   0  0  0  0  0  0  0  0  0  0  0  0
   35.1163  -13.5649    0.0000 C   0  0  0  0  0  0  0  0  0  0  0  0
   33.9274  -14.2642    0.0000 C   0  0  0  0  0  0  0  0  0  0  0  0
   32.7384  -13.5649    0.0000 C   0  0  0  0  0  0  0  0  0  0  0  0
   31.5494  -14.2642    0.0000 O   0  0  0  0  0  0  0  0  0  0  0  0
   46.0267  -14.2642    0.0000 C   0  0  0  0  0  0  0  0  0  0  0  0
   30.1507  -14.2642    0.0000 S   0  0  0  0  0  0  0  0  0  0  0  0
   28.6820  -14.2642    0.0000 O   0  0  0  0  0  0  0  0  0  0  0  0
   30.1507  -12.8655    0.0000 O   0  0  0  0  0  0  0  0  0  0  0  0
   30.1507  -15.6630    0.0000 O   0  0  0  0  0  0  0  0  0  0  0  0
 18 19  2  0     0  0
 19 20  1  0     0  0
 20 21  2  0     0  0
 21 16  1  0     0  0
  3  4  2  0     0  0
 18 22  1  0     0  0
  4  5  1  0     0  0
  5  6  2  0     0  0
  6  1  1  0     0  0
  9 10  2  0     0  0
 10 11  1  0     0  0
 22 23  2  0     0  0
 23 24  1  0     0  0
 24 25  2  0     0  0
 25 26  1  0     0  0
 26 27  2  0     0  0
 27 22  1  0     0  0
 11 12  2  0     0  0
 12 13  1  0     0  0
 13 14  2  0     0  0
 14  9  1  0     0  0
 11 15  1  0     0  0
  5  7  1  0     0  0
 15 16  1  0     0  0
  7  8  1  0     0  0
 12 28  1  0     0  0
  1  2  2  0     0  0
  8  9  1  0     0  0
  2  3  1  0     0  0
 16 17  2  0     0  0
 17 18  1  0     0  0
  8 29  2  0     0  0
 30 31  1  0     0  0
  1 31  1  0     0  0
 30 32  2  0     0  0
 32 33  1  0     0  0
 33 34  2  0     0  0
 31 34  1  0     0  0
  3 35  1  0     0  0
 35 36  1  0     0  0
 33 37  1  0     0  0
 35 38  1  0     0  0
 35 39  1  0     0  0
 40 41  1  0     0  0
 41 42  1  0     0  0
 42 43  1  0     0  0
 43 44  1  0     0  0
 44 45  1  0     0  0
 45 46  1  0     0  0
 46 47  1  0     0  0
 47 48  1  0     0  0
 48 49  1  0     0  0
 49 50  1  0     0  0
 50 51  1  0     0  0
 40 52  1  0     0  0
 51 53  1  0     0  0
 53 54  1  0     0  0
 53 55  2  0     0  0
 53 56  2  0     0  0
M  END
