 
 
 
 40 42  0  0  0  0  0  0  0  0999 V2000
   14.2874  -17.5068    0.0000 N   0  0  0  0  0  0  0  0  0  0  0  0
   15.6888  -17.5068    0.0000 C   0  0  0  0  0  0  0  0  0  0  0  0
   16.1093  -16.1754    0.0000 C   0  0  0  0  0  0  0  0  0  0  0  0
   14.9881  -15.3345    0.0000 C   0  0  0  0  0  0  0  0  0  0  0  0
   13.8669  -16.1754    0.0000 N   0  0  0  0  0  0  0  0  0  0  0  0
   14.9881  -13.9330    0.0000 O   0  0  0  0  0  0  0  0  0  0  0  0
   12.6056  -15.4746    0.0000 C   0  0  0  0  0  0  0  0  0  0  0  0
   11.4143  -16.1754    0.0000 C   0  0  0  0  0  0  0  0  0  0  0  0
   18.5619  -16.1754    0.0000 N   0  0  0  0  0  0  0  0  0  0  0  0
   17.3706  -15.4746    0.0000 N   0  0  0  0  0  0  0  0  0  0  0  0
   16.5297  -18.6280    0.0000 C   0  0  0  0  0  0  0  0  0  0  0  0
   12.6056  -14.0732    0.0000 C   0  0  0  0  0  0  0  0  0  0  0  0
   11.4143  -13.3724    0.0000 C   0  0  0  0  0  0  0  0  0  0  0  0
   10.2231  -14.0732    0.0000 C   0  0  0  0  0  0  0  0  0  0  0  0
   10.2231  -15.4746    0.0000 C   0  0  0  0  0  0  0  0  0  0  0  0
   19.7531  -15.4746    0.0000 C   0  0  0  0  0  0  0  0  0  0  0  0
    9.0318  -16.1754    0.0000 C   0  0  0  0  0  0  0  0  0  0  0  0
    9.0318  -13.3724    0.0000 C   0  0  0  0  0  0  0  0  0  0  0  0
   20.9444  -16.1754    0.0000 C   0  0  0  0  0  0  0  0  0  0  0  0
   22.2057  -15.4746    0.0000 C   0  0  0  0  0  0  0  0  0  0  0  0
   22.2057  -14.0732    0.0000 C   0  0  0  0  0  0  0  0  0  0  0  0
   20.9444  -13.3724    0.0000 C   0  0  0  0  0  0  0  0  0  0  0  0
   19.7531  -14.0732    0.0000 C   0  0  0  0  0  0  0  0  0  0  0  0
   20.9444  -17.5768    0.0000 O   0  0  0  0  0  0  0  0  0  0  0  0
   23.3969  -16.1754    0.0000 C   0  0  0  0  0  0  0  0  0  0  0  0
   23.3969  -17.5768    0.0000 C   0  0  0  0  0  0  0  0  0  0  0  0
   24.6583  -18.2776    0.0000 C   0  0  0  0  0  0  0  0  0  0  0  0
   25.8495  -17.5768    0.0000 C   0  0  0  0  0  0  0  0  0  0  0  0
   25.8495  -16.1754    0.0000 C   0  0  0  0  0  0  0  0  0  0  0  0
   24.6583  -15.4746    0.0000 C   0  0  0  0  0  0  0  0  0  0  0  0
   27.0408  -15.4746    0.0000 C   0  0  0  0  0  0  0  0  0  0  0  0
   28.2320  -16.1754    0.0000 O   0  5  0  0  0  0  0  0  0  0  0  0
   27.0408  -14.0732    0.0000 O   0  0  0  0  0  0  0  0  0  0  0  0
   31.1013  -16.2516    0.0000 C   0  0  0  0  0  0  0  0  0  0  0  0
   32.2937  -15.5502    0.0000 N   0  3  0  0  0  0  0  0  0  0  0  0
   33.5562  -16.2516    0.0000 C   0  0  0  0  0  0  0  0  0  0  0  0
   34.7486  -15.5502    0.0000 C   0  0  0  0  0  0  0  0  0  0  0  0
   35.9409  -16.2516    0.0000 O   0  0  0  0  0  0  0  0  0  0  0  0
   32.2937  -14.1474    0.0000 C   0  0  0  0  0  0  0  0  0  0  0  0
   32.2937  -16.9530    0.0000 C   0  0  0  0  0  0  0  0  0  0  0  0
  1  2  2  0     0  0
  2  3  1  0     0  0
  3  4  1  0     0  0
  4  5  1  0     0  0
  1  5  1  0     0  0
  4  6  2  0     0  0
  5  7  1  0     0  0
  7  8  1  0     0  0
  9 10  1  0     0  0
  3 10  2  0     0  0
  2 11  1  0     0  0
  7 12  2  0     0  0
 12 13  1  0     0  0
 13 14  2  0     0  0
 14 15  1  0     0  0
  8 15  2  0     0  0
  9 16  1  0     0  0
 15 17  1  0     0  0
 14 18  1  0     0  0
 16 19  2  0     0  0
 19 20  1  0     0  0
 20 21  2  0     0  0
 21 22  1  0     0  0
 22 23  2  0     0  0
 16 23  1  0     0  0
 19 24  1  0     0  0
 20 25  1  0     0  0
 25 26  2  0     0  0
 26 27  1  0     0  0
 27 28  2  0     0  0
 28 29  1  0     0  0
 29 30  2  0     0  0
 25 30  1  0     0  0
 29 31  1  0     0  0
 31 32  1  0     0  0
 31 33  2  0     0  0
 34 35  1  0     0  0
 35 36  1  0     0  0
 36 37  1  0     0  0
 37 38  1  0     0  0
 35 39  1  0     0  0
 35 40  1  0     0  0
M  CHG  2  32  -1  35   1
M  END
