 
 
 
 53 54  0  0  1  0  0  0  0  0999 V2000
   11.5508  -12.9513    0.0000 C   0  0  0  0  0  0  0  0  0  0  0  0
   11.5508  -14.3520    0.0000 C   0  0  0  0  0  0  0  0  0  0  0  0
   12.8113  -15.0523    0.0000 C   0  0  0  0  0  0  0  0  0  0  0  0
   14.0019  -14.3520    0.0000 C   0  0  0  0  0  0  0  0  0  0  0  0
   14.0019  -12.9513    0.0000 C   0  0  0  0  0  0  0  0  0  0  0  0
   12.8113  -12.2510    0.0000 C   0  0  0  0  0  0  0  0  0  0  0  0
   15.3325  -14.7721    0.0000 N   0  0  0  0  0  0  0  0  0  0  0  0
   16.1728  -13.6517    0.0000 C   0  0  0  0  0  0  0  0  0  0  0  0
   15.3325  -12.5312    0.0000 N   0  0  0  0  0  0  0  0  0  0  0  0
   17.5735  -13.6517    0.0000 S   0  0  0  0  0  0  0  0  0  0  0  0
   18.2738  -14.8422    0.0000 C   0  0  0  0  0  0  0  0  0  0  0  0
   18.2738  -12.4611    0.0000 O   0  0  0  0  0  0  0  0  0  0  0  0
   19.6744  -14.8422    0.0000 C   0  0  0  0  0  0  0  0  0  0  0  0
   20.3747  -16.1027    0.0000 C   0  0  0  0  0  0  0  0  0  0  0  0
   21.7753  -16.1027    0.0000 C   0  0  0  0  0  0  0  0  0  0  0  0
   22.4756  -14.8422    0.0000 C   0  0  0  0  0  0  0  0  0  0  0  0
   21.7753  -13.6517    0.0000 C   0  0  0  0  0  0  0  0  0  0  0  0
   20.3747  -13.6517    0.0000 N   0  0  0  0  0  0  0  0  0  0  0  0
   19.6744  -17.2933    0.0000 C   0  0  0  0  0  0  0  0  0  0  0  0
   22.4756  -17.2933    0.0000 O   0  0  0  0  0  0  0  0  0  0  0  0
   23.8763  -17.2933    0.0000 C   0  0  0  0  0  0  0  0  0  0  0  0
   24.5766  -18.4838    0.0000 C   0  0  0  0  0  0  0  0  0  0  0  0
   25.2769  -19.6743    0.0000 F   0  0  0  0  0  0  0  0  0  0  0  0
   25.7671  -17.7835    0.0000 F   0  0  0  0  0  0  0  0  0  0  0  0
   23.3160  -19.1841    0.0000 F   0  0  0  0  0  0  0  0  0  0  0  0
   31.0800  -16.1700    0.0000 O   0  0  0  0  0  0  0  0  0  0  0  0
   11.5508  -12.9513    0.0000 C   0  0  0  0  0  0  0  0  0  0  0  0
   11.5508  -14.3520    0.0000 C   0  0  0  0  0  0  0  0  0  0  0  0
   12.8113  -15.0523    0.0000 C   0  0  0  0  0  0  0  0  0  0  0  0
   14.0019  -14.3520    0.0000 C   0  0  0  0  0  0  0  0  0  0  0  0
   14.0019  -12.9513    0.0000 C   0  0  0  0  0  0  0  0  0  0  0  0
   12.8113  -12.2510    0.0000 C   0  0  0  0  0  0  0  0  0  0  0  0
   15.3325  -12.5312    0.0000 N   0  0  0  0  0  0  0  0  0  0  0  0
   16.1728  -13.6517    0.0000 C   0  0  0  0  0  0  0  0  0  0  0  0
   15.3325  -14.7721    0.0000 N   0  0  0  0  0  0  0  0  0  0  0  0
   17.5735  -13.6517    0.0000 S   0  0  0  0  0  0  0  0  0  0  0  0
   18.2738  -14.8422    0.0000 C   0  0  0  0  0  0  0  0  0  0  0  0
   19.6744  -14.8422    0.0000 C   0  0  0  0  0  0  0  0  0  0  0  0
   20.3747  -16.1027    0.0000 C   0  0  0  0  0  0  0  0  0  0  0  0
   21.7753  -16.1027    0.0000 C   0  0  0  0  0  0  0  0  0  0  0  0
   22.4756  -14.8422    0.0000 C   0  0  0  0  0  0  0  0  0  0  0  0
   21.7753  -13.6517    0.0000 C   0  0  0  0  0  0  0  0  0  0  0  0
   20.3747  -13.6517    0.0000 N   0  0  0  0  0  0  0  0  0  0  0  0
   22.4756  -17.2933    0.0000 O   0  0  0  0  0  0  0  0  0  0  0  0
   23.8763  -17.2933    0.0000 C   0  0  0  0  0  0  0  0  0  0  0  0
   24.5766  -18.4838    0.0000 C   0  0  0  0  0  0  0  0  0  0  0  0
   25.2769  -19.6743    0.0000 F   0  0  0  0  0  0  0  0  0  0  0  0
   25.7671  -17.7835    0.0000 F   0  0  0  0  0  0  0  0  0  0  0  0
   23.3160  -19.1841    0.0000 F   0  0  0  0  0  0  0  0  0  0  0  0
   19.6744  -17.2933    0.0000 C   0  0  0  0  0  0  0  0  0  0  0  0
   18.2738  -12.4611    0.0000 O   0  0  0  0  0  0  0  0  0  0  0  0
   31.0800  -16.1700    0.0000 O   0  0  0  0  0  0  0  0  0  0  0  0
   31.0800  -16.1700    0.0000 O   0  0  0  0  0  0  0  0  0  0  0  0
  1  2  2  0     0  0
  2  3  1  0     0  0
  3  4  2  0     0  0
  4  5  1  0     0  0
  5  6  2  0     0  0
  1  6  1  0     0  0
  4  7  1  0     0  0
  7  8  2  0     0  0
  8  9  1  0     0  0
  5  9  1  0     0  0
  8 10  1  0     0  0
 10 11  1  6     0  0
 10 12  2  0     0  0
 11 13  1  0     0  0
 13 14  2  0     0  0
 14 15  1  0     0  0
 15 16  2  0     0  0
 16 17  1  0     0  0
 17 18  2  0     0  0
 13 18  1  0     0  0
 14 19  1  0     0  0
 15 20  1  0     0  0
 20 21  1  0     0  0
 21 22  1  0     0  0
 22 23  1  0     0  0
 22 24  1  0     0  0
 22 25  1  0     0  0
 27 28  2  0     0  0
 28 29  1  0     0  0
 29 30  2  0     0  0
 30 31  1  0     0  0
 31 32  2  0     0  0
 27 32  1  0     0  0
 30 35  1  0     0  0
 35 34  2  0     0  0
 34 33  1  0     0  0
 31 33  1  0     0  0
 34 36  1  0     0  0
 36 37  1  6     0  0
 36 51  2  0     0  0
 37 38  1  0     0  0
 38 39  2  0     0  0
 39 40  1  0     0  0
 40 41  2  0     0  0
 41 42  1  0     0  0
 42 43  2  0     0  0
 38 43  1  0     0  0
 39 50  1  0     0  0
 40 44  1  0     0  0
 44 45  1  0     0  0
 45 46  1  0     0  0
 46 47  1  0     0  0
 46 48  1  0     0  0
 46 49  1  0     0  0
M  STY  2   1 MUL   2 MUL
M  SLB  2   1   1   2   2
M  SCN  2   1 HT    2 HT 
M  SAL   1 15   1   2   3   4   5   6   7   8   9  10  11  12  13  14  15
M  SAL   1 15  16  17  18  19  20  21  22  23  24  25  27  28  29  30  31
M  SAL   1 15  32  33  34  35  36  37  38  39  40  41  42  43  44  45  46
M  SAL   1  5  47  48  49  50  51
M  SPA   1 15   1   2   3   4   5   6   9   8   7  10  11  13  14  15  16
M  SPA   1 10  17  18  20  21  22  23  24  25  19  12
M  SDI   1  4   11.4800  -21.1400   11.4800  -10.9900
M  SDI   1  4   26.5300  -10.9900   26.5300  -21.1400
M  SMT   1 2
M  SAL   2  3  26  52  53
M  SPA   2  1  26
M  SDI   2  4   28.9100  -17.0100   28.9100  -15.0500
M  SDI   2  4   31.7800  -15.0500   31.7800  -17.0100
M  SMT   2 3
M  END
